<?xml version="1.0" encoding="UTF-8"?>

<!-- generated on 2023-09-24 12:18:53 by Eclipse SUMO netconvert Version 1.18.0
<configuration xmlns:xsi="http://www.w3.org/2001/XMLSchema-instance" xsi:noNamespaceSchemaLocation="http://sumo.dlr.de/xsd/netconvertConfiguration.xsd">

    <input>
        <type-files value="${SUMO_HOME}/data/typemap/osmNetconvert.typ.xml"/>
        <osm-files value="osm_bbox.osm.xml"/>
    </input>

    <output>
        <output-file value="osm.net.xml"/>
        <output.street-names value="true"/>
        <output.original-names value="true"/>
    </output>

    <projection>
        <proj.utm value="true"/>
    </projection>

    <processing>
        <geometry.remove value="true"/>
        <roundabouts.guess value="true"/>
    </processing>

    <tls_building>
        <tls.discard-simple value="true"/>
        <tls.join value="true"/>
        <tls.guess-signals value="true"/>
        <tls.default-type value="actuated"/>
    </tls_building>

    <ramp_guessing>
        <ramps.guess value="true"/>
    </ramp_guessing>

    <edge_removal>
        <keep-edges.by-vclass value="passenger"/>
    </edge_removal>

    <junctions>
        <junctions.join value="true"/>
        <junctions.corner-detail value="5"/>
    </junctions>

</configuration>
-->

<net version="1.16" junctionCornerDetail="5" limitTurnSpeed="5.50" xmlns:xsi="http://www.w3.org/2001/XMLSchema-instance" xsi:noNamespaceSchemaLocation="http://sumo.dlr.de/xsd/net_file.xsd">

    <location netOffset="-683047.85,-4928376.68" convBoundary="0.00,0.00,3002.62,1605.45" origBoundary="11.295272,44.484876,11.339870,44.502259" projParameter="+proj=utm +zone=32 +ellps=WGS84 +datum=WGS84 +units=m +no_defs"/>

    <type id="highway.living_street" priority="2" numLanes="1" speed="2.78" disallow="tram rail_urban rail rail_electric rail_fast ship" oneway="0"/>
    <type id="highway.primary" priority="12" numLanes="2" speed="27.78" disallow="tram rail_urban rail rail_electric rail_fast ship" oneway="0"/>
    <type id="highway.residential" priority="3" numLanes="1" speed="13.89" disallow="tram rail_urban rail rail_electric rail_fast ship" oneway="0"/>
    <type id="highway.secondary" priority="11" numLanes="1" speed="27.78" disallow="tram rail_urban rail rail_electric rail_fast ship" oneway="0"/>
    <type id="highway.tertiary" priority="10" numLanes="1" speed="22.22" disallow="tram rail_urban rail rail_electric rail_fast ship" oneway="0"/>
    <type id="highway.tertiary_link" priority="5" numLanes="1" speed="22.22" disallow="tram rail_urban rail rail_electric rail_fast ship" oneway="0"/>
    <type id="highway.unclassified" priority="4" numLanes="1" speed="13.89" disallow="tram rail_urban rail rail_electric rail_fast ship" oneway="0"/>

    <edge id=":10681284749_0" function="internal">
        <lane id=":10681284749_0_0" index="0" disallow="tram rail_urban rail rail_electric rail_fast ship" speed="8.33" length="7.13" shape="2123.01,589.53 2123.52,590.90 2124.45,592.22 2125.82,593.51 2127.61,594.75"/>
    </edge>
    <edge id=":10681284749_1" function="internal">
        <lane id=":10681284749_1_0" index="0" disallow="tram rail_urban rail rail_electric rail_fast ship" speed="8.33" length="7.21" shape="2123.01,589.53 2123.45,591.62 2123.64,593.09 2123.57,594.56 2123.21,596.65"/>
    </edge>
    <edge id=":10871925356_0" function="internal">
        <lane id=":10871925356_0_0" index="0" disallow="tram rail_urban rail rail_electric rail_fast ship" speed="5.71" length="9.20" shape="1822.74,978.45 1820.45,976.96 1818.59,976.81 1817.17,978.02 1816.20,980.58"/>
    </edge>
    <edge id=":10871925356_1" function="internal">
        <lane id=":10871925356_1_0" index="0" disallow="tram rail_urban rail rail_electric rail_fast ship" speed="8.33" length="11.60" shape="1818.77,969.27 1816.20,980.58"/>
    </edge>
    <edge id=":10876018470_0" function="internal">
        <lane id=":10876018470_0_0" index="0" disallow="tram rail_urban rail rail_electric rail_fast ship" speed="6.87" length="10.11" shape="782.87,726.48 780.44,726.64 778.57,727.75 777.28,729.80 776.56,732.80"/>
    </edge>
    <edge id=":10876018470_1" function="internal">
        <lane id=":10876018470_1_0" index="0" disallow="tram rail_urban rail rail_electric rail_fast ship" speed="8.33" length="10.82" shape="782.87,726.48 779.79,726.38 777.48,726.67 775.17,726.95 772.09,726.84"/>
    </edge>
    <edge id=":10876018470_2" function="internal">
        <lane id=":10876018470_2_0" index="0" disallow="tram rail_urban rail rail_electric rail_fast ship" speed="7.17" length="11.23" shape="772.47,723.66 774.66,724.46 776.07,726.25 776.71,729.03 776.56,732.80"/>
    </edge>
    <edge id=":10876018470_3" function="internal">
        <lane id=":10876018470_3_0" index="0" disallow="tram rail_urban rail rail_electric rail_fast ship" speed="3.65" length="4.67" shape="772.47,723.66 773.57,724.60 773.87,725.44 773.38,726.19 772.09,726.84"/>
    </edge>
    <edge id=":10876018475_0" function="internal">
        <lane id=":10876018475_0_0" index="0" disallow="tram rail_urban rail rail_electric rail_fast ship" speed="3.65" length="4.67" shape="766.34,857.60 765.28,856.63 765.01,855.78 765.53,855.05 766.84,854.44"/>
    </edge>
    <edge id=":10876018475_1" function="internal">
        <lane id=":10876018475_1_0" index="0" disallow="tram rail_urban rail rail_electric rail_fast ship" speed="6.51" length="8.83" shape="762.15,848.21 762.19,850.62 762.98,852.47 764.53,853.74 766.84,854.44"/>
    </edge>
    <edge id=":10876234323_0" function="internal">
        <lane id=":10876234323_0_0" index="0" disallow="tram rail_urban rail rail_electric rail_fast ship" speed="8.33" length="0.10" shape="1309.81,1326.76 1309.81,1326.76"/>
    </edge>
    <edge id=":10876234335_0" function="internal">
        <lane id=":10876234335_0_0" index="0" disallow="tram rail_urban rail rail_electric rail_fast ship" speed="11.11" length="0.22" shape="1301.49,1299.49 1301.49,1299.55 1301.50,1299.60 1301.51,1299.64 1301.53,1299.71"/>
    </edge>
    <edge id=":10876659662_0" function="internal">
        <lane id=":10876659662_0_0" index="0" disallow="tram rail_urban rail rail_electric rail_fast ship" speed="6.43" length="7.57" shape="1080.32,445.96 1078.66,444.59 1076.98,443.93 1075.27,443.99 1073.54,444.77"/>
    </edge>
    <edge id=":10876659662_1" function="internal">
        <lane id=":10876659662_1_0" index="0" disallow="tram rail_urban rail rail_electric rail_fast ship" speed="8.33" length="8.40" shape="1080.53,440.12 1073.54,444.77"/>
    </edge>
    <edge id=":10876756321_0" function="internal">
        <lane id=":10876756321_0_0" index="0" disallow="tram rail_urban rail rail_electric rail_fast ship" speed="8.33" length="3.52" shape="1416.49,490.51 1416.40,491.48 1416.72,492.19 1417.05,492.90 1416.96,493.88"/>
    </edge>
    <edge id=":10876756321_1" function="internal">
        <lane id=":10876756321_1_0" index="0" disallow="tram rail_urban rail rail_electric rail_fast ship" speed="3.65" length="4.67" shape="1413.95,492.77 1415.12,491.92 1416.01,491.82 1416.62,492.47 1416.96,493.88"/>
    </edge>
    <edge id=":10877445291_0" function="internal">
        <lane id=":10877445291_0_0" index="0" disallow="tram rail_urban rail rail_electric rail_fast ship" speed="8.33" length="10.89" shape="936.21,1012.60 933.18,1002.14"/>
    </edge>
    <edge id=":10877445291_1" function="internal">
        <lane id=":10877445291_1_0" index="0" disallow="tram rail_urban rail rail_electric rail_fast ship" speed="12.71" length="11.08" shape="932.21,1012.86 933.21,1009.83 933.89,1007.47 933.97,1005.12 933.18,1002.14"/>
    </edge>
    <edge id=":10878114228_0" function="internal">
        <lane id=":10878114228_0_0" index="0" disallow="tram rail_urban rail rail_electric rail_fast ship" speed="3.65" length="4.67" shape="1501.45,288.92 1502.00,290.25 1501.89,291.13 1501.12,291.58 1499.67,291.58"/>
    </edge>
    <edge id=":10969259103_0" function="internal">
        <lane id=":10969259103_0_0" index="0" disallow="tram rail_urban rail rail_electric rail_fast ship" speed="3.65" length="4.67" shape="2084.59,1179.25 2085.81,1178.47 2086.70,1178.43 2087.27,1179.11 2087.52,1180.53"/>
    </edge>
    <edge id=":10974558966_0" function="internal">
        <lane id=":10974558966_0_0" index="0" disallow="tram rail_urban rail rail_electric rail_fast ship" speed="3.65" length="4.67" shape="2644.26,1185.36 2643.50,1186.59 2642.72,1187.02 2641.90,1186.65 2641.06,1185.48"/>
    </edge>
    <edge id=":10980747024_0" function="internal">
        <lane id=":10980747024_0_0" index="0" disallow="tram rail_urban rail rail_electric rail_fast ship" speed="3.65" length="4.67" shape="2114.51,1219.87 2114.91,1218.49 2115.55,1217.86 2116.44,1218.00 2117.56,1218.91"/>
    </edge>
    <edge id=":10989938339_0" function="internal">
        <lane id=":10989938339_0_0" index="0" disallow="tram rail_urban rail rail_electric rail_fast ship" speed="6.68" length="7.69" shape="2723.74,1062.29 2721.68,1063.18 2720.24,1064.38 2719.40,1065.89 2719.18,1067.71"/>
    </edge>
    <edge id=":10989938339_1" function="internal">
        <lane id=":10989938339_1_0" index="0" disallow="tram rail_urban rail rail_electric rail_fast ship" speed="8.33" length="8.73" shape="2718.59,1059.03 2719.18,1067.71"/>
        <lane id=":10989938339_1_1" index="1" disallow="tram rail_urban rail rail_electric rail_fast ship" speed="8.33" length="8.73" shape="2715.38,1059.13 2715.98,1067.85"/>
    </edge>
    <edge id=":1195439202_0" function="internal">
        <lane id=":1195439202_0_0" index="0" disallow="tram rail_urban rail rail_electric rail_fast ship" speed="3.65" length="4.67" shape="1114.22,27.69 1115.41,26.87 1116.30,26.79 1116.89,27.46 1117.19,28.87"/>
    </edge>
    <edge id=":1336557126_0" function="internal">
        <lane id=":1336557126_0_0" index="0" disallow="tram rail_urban rail rail_electric rail_fast ship" speed="8.33" length="4.49" shape="984.30,1050.57 985.38,1051.36 986.14,1051.87 986.96,1052.26 988.22,1052.67"/>
    </edge>
    <edge id=":1338983300_0" function="internal">
        <lane id=":1338983300_0_0" index="0" disallow="tram rail_urban rail rail_electric rail_fast ship" speed="8.33" length="3.35" shape="1688.99,1290.33 1689.01,1289.34 1688.99,1288.66 1688.90,1287.98 1688.71,1287.01"/>
    </edge>
    <edge id=":1338983300_1" function="internal">
        <lane id=":1338983300_1_0" index="0" disallow="tram rail_urban rail rail_electric rail_fast ship" speed="3.65" length="4.67" shape="1688.99,1290.33 1689.83,1289.16 1690.64,1288.78 1691.43,1289.20 1692.19,1290.42"/>
    </edge>
    <edge id=":1374484818_0" function="internal">
        <lane id=":1374484818_0_0" index="0" disallow="tram rail_urban rail rail_electric rail_fast ship" speed="2.78" length="4.67" shape="1510.98,337.91 1511.42,336.54 1512.07,335.93 1512.95,336.09 1514.05,337.02"/>
    </edge>
    <edge id=":1374484849_0" function="internal">
        <lane id=":1374484849_0_0" index="0" disallow="tram rail_urban rail rail_electric rail_fast ship" speed="8.33" length="9.53" shape="1596.88,533.56 1587.89,530.40"/>
    </edge>
    <edge id=":1374484849_1" function="internal">
        <lane id=":1374484849_1_0" index="0" disallow="tram rail_urban rail rail_electric rail_fast ship" speed="5.56" length="8.22" shape="1596.88,533.56 1594.41,532.45 1592.71,531.16 1591.77,529.70 1591.59,528.07"/>
    </edge>
    <edge id=":1374484849_2" function="internal">
        <lane id=":1374484849_2_0" index="0" disallow="tram rail_urban rail rail_electric rail_fast ship" speed="5.56" length="8.40" shape="1594.77,528.44 1594.16,530.12 1592.81,531.00 1590.72,531.10 1587.89,530.40"/>
    </edge>
    <edge id=":1374484849_3" function="internal">
        <lane id=":1374484849_3_0" index="0" disallow="tram rail_urban rail rail_electric rail_fast ship" speed="2.78" length="4.67" shape="1594.77,528.44 1593.84,529.54 1592.99,529.85 1592.25,529.35 1591.59,528.07"/>
    </edge>
    <edge id=":1630441197_0" function="internal">
        <lane id=":1630441197_0_0" index="0" disallow="tram rail_urban rail rail_electric rail_fast ship" speed="6.74" length="6.92" shape="970.97,1052.43 969.06,1051.90 967.35,1051.88 965.85,1052.37 964.55,1053.39"/>
    </edge>
    <edge id=":1630441197_1" function="internal">
        <lane id=":1630441197_1_0" index="0" disallow="tram rail_urban rail rail_electric rail_fast ship" speed="11.11" length="7.49" shape="968.72,1046.79 968.10,1049.03 967.33,1050.45 966.22,1051.69 964.55,1053.39"/>
        <lane id=":1630441197_1_1" index="1" disallow="tram rail_urban rail rail_electric rail_fast ship" speed="11.11" length="7.49" shape="965.76,1045.34 965.23,1047.31 964.60,1048.58 963.66,1049.70 962.22,1051.19"/>
    </edge>
    <edge id=":1630441215_0" function="internal">
        <lane id=":1630441215_0_0" index="0" disallow="tram rail_urban rail rail_electric rail_fast ship" speed="9.72" length="5.37" shape="952.50,1062.78 951.55,1061.49 950.88,1060.58 950.06,1059.87 948.67,1059.18"/>
    </edge>
    <edge id=":1630441215_1" function="internal">
        <lane id=":1630441215_1_0" index="0" disallow="tram rail_urban rail rail_electric rail_fast ship" speed="11.11" length="5.39" shape="954.47,1058.96 952.72,1059.21 951.49,1059.53 950.30,1059.63 948.67,1059.18"/>
        <lane id=":1630441215_1_1" index="1" disallow="tram rail_urban rail rail_electric rail_fast ship" speed="8.35" length="5.39" shape="954.53,1055.64 953.16,1056.14 952.17,1056.51 951.20,1056.59 949.87,1056.22"/>
    </edge>
    <edge id=":1725488006_0" function="internal">
        <lane id=":1725488006_0_0" index="0" disallow="tram rail_urban rail rail_electric rail_fast ship" speed="3.65" length="4.67" shape="684.30,262.80 685.73,262.65 686.55,263.01 686.75,263.88 686.34,265.26"/>
    </edge>
    <edge id=":1818459189_0" function="internal">
        <lane id=":1818459189_0_0" index="0" disallow="tram rail_urban rail rail_electric rail_fast ship" speed="3.65" length="4.67" shape="2702.51,158.97 2701.15,158.49 2700.57,157.82 2700.76,156.94 2701.72,155.87"/>
    </edge>
    <edge id=":1818459193_0" function="internal">
        <lane id=":1818459193_0_0" index="0" disallow="tram rail_urban rail rail_electric rail_fast ship" speed="6.30" length="9.04" shape="2770.59,270.82 2771.79,273.02 2773.39,274.24 2775.38,274.46 2777.78,273.68"/>
    </edge>
    <edge id=":1818459193_1" function="internal">
        <lane id=":1818459193_1_0" index="0" disallow="tram rail_urban rail rail_electric rail_fast ship" speed="3.65" length="4.67" shape="2770.59,270.82 2770.25,272.22 2769.64,272.87 2768.75,272.78 2767.59,271.93"/>
    </edge>
    <edge id=":1818459193_2" function="internal">
        <lane id=":1818459193_2_0" index="0" disallow="tram rail_urban rail rail_electric rail_fast ship" speed="6.96" length="9.58" shape="2764.86,280.10 2766.85,278.67 2767.97,276.83 2768.21,274.59 2767.59,271.93"/>
    </edge>
    <edge id=":1818459193_3" function="internal">
        <lane id=":1818459193_3_0" index="0" disallow="tram rail_urban rail rail_electric rail_fast ship" speed="13.89" length="14.38" shape="2764.86,280.10 2777.78,273.68"/>
        <lane id=":1818459193_3_1" index="1" disallow="tram rail_urban rail rail_electric rail_fast ship" speed="13.89" length="14.38" shape="2766.31,282.95 2779.18,276.56"/>
        <lane id=":1818459193_3_2" index="2" disallow="tram rail_urban rail rail_electric rail_fast ship" speed="13.89" length="14.38" shape="2767.75,285.81 2780.59,279.43"/>
    </edge>
    <edge id=":1825317805_0" function="internal">
        <lane id=":1825317805_0_0" index="0" disallow="tram rail_urban rail rail_electric rail_fast ship" speed="3.65" length="4.67" shape="1355.36,100.62 1355.98,99.32 1356.71,98.80 1357.56,99.08 1358.53,100.15"/>
    </edge>
    <edge id=":1825317811_0" function="internal">
        <lane id=":1825317811_0_0" index="0" disallow="tram rail_urban rail rail_electric rail_fast ship" speed="5.49" length="8.79" shape="1381.56,177.86 1378.77,177.08 1376.93,177.36 1376.05,178.71 1376.12,181.13"/>
    </edge>
    <edge id=":1825317811_1" function="internal">
        <lane id=":1825317811_1_0" index="0" disallow="tram rail_urban rail rail_electric rail_fast ship" speed="8.33" length="14.83" shape="1381.56,177.86 1378.23,176.22 1375.19,174.13 1372.42,171.68 1369.90,168.92"/>
    </edge>
    <edge id=":1825317811_2" function="internal">
        <lane id=":1825317811_2_0" index="0" disallow="tram rail_urban rail rail_electric rail_fast ship" speed="3.67" length="4.73" shape="1381.56,177.86 1380.93,176.55 1381.00,175.64 1381.77,175.16 1383.22,175.09"/>
    </edge>
    <edge id=":1825317811_3" function="internal">
        <lane id=":1825317811_3_0" index="0" disallow="tram rail_urban rail rail_electric rail_fast ship" speed="8.33" length="13.76" shape="1372.37,166.88 1374.76,169.52 1377.25,171.72 1380.02,173.55 1383.22,175.09"/>
    </edge>
    <edge id=":1825317811_4" function="internal">
        <lane id=":1825317811_4_0" index="0" disallow="tram rail_urban rail rail_electric rail_fast ship" speed="8.33" length="14.92" shape="1372.37,166.88 1374.17,170.04 1375.10,173.60 1375.60,177.37 1376.12,181.13"/>
    </edge>
    <edge id=":1825317811_5" function="internal">
        <lane id=":1825317811_5_0" index="0" disallow="tram rail_urban rail rail_electric rail_fast ship" speed="3.65" length="4.67" shape="1372.37,166.88 1372.52,168.31 1372.16,169.13 1371.28,169.33 1369.90,168.92"/>
    </edge>
    <edge id=":1825317811_6" function="internal">
        <lane id=":1825317811_6_0" index="0" disallow="tram rail_urban rail rail_electric rail_fast ship" speed="8.33" length="12.46" shape="1372.81,180.81 1372.42,177.42 1372.21,174.47 1371.58,171.71 1369.90,168.92"/>
    </edge>
    <edge id=":1825317811_7" function="internal">
        <lane id=":1825317811_7_0" index="0" disallow="tram rail_urban rail rail_electric rail_fast ship" speed="7.24" length="16.39" shape="1372.81,180.81 1372.72,176.42 1374.42,174.01 1377.93,173.56 1383.22,175.09"/>
    </edge>
    <edge id=":1825317811_8" function="internal">
        <lane id=":1825317811_8_0" index="0" disallow="tram rail_urban rail rail_electric rail_fast ship" speed="3.70" length="4.86" shape="1372.81,180.81 1373.75,179.65 1374.62,179.32 1375.41,179.81 1376.12,181.13"/>
    </edge>
    <edge id=":1825321491_0" function="internal">
        <lane id=":1825321491_0_0" index="0" disallow="tram rail_urban rail rail_electric rail_fast ship" speed="3.65" length="4.67" shape="1710.45,171.33 1709.85,170.02 1709.93,169.13 1710.69,168.65 1712.13,168.60"/>
    </edge>
    <edge id=":2174067820_0" function="internal">
        <lane id=":2174067820_0_0" index="0" disallow="tram rail_urban rail rail_electric rail_fast ship" speed="8.33" length="0.82" shape="2072.33,375.40 2072.56,375.48 2072.71,375.56 2072.84,375.67 2073.01,375.85"/>
    </edge>
    <edge id=":2390874376_0" function="internal">
        <lane id=":2390874376_0_0" index="0" disallow="tram rail_urban rail rail_electric rail_fast ship" speed="8.33" length="0.81" shape="971.34,1091.45 971.04,1090.69"/>
    </edge>
    <edge id=":2390874376_1" function="internal">
        <lane id=":2390874376_1_0" index="0" disallow="tram rail_urban rail rail_electric rail_fast ship" speed="8.33" length="0.72" shape="974.00,1089.49 974.10,1089.68 974.15,1089.82 974.19,1089.96 974.27,1090.16"/>
    </edge>
    <edge id=":2395151470_0" function="internal">
        <lane id=":2395151470_0_0" index="0" disallow="tram rail_urban rail rail_electric rail_fast ship" speed="8.33" length="9.48" shape="2132.13,596.49 2134.83,597.28 2136.81,597.63 2138.72,597.34 2141.22,596.23"/>
    </edge>
    <edge id=":2395151470_1" function="internal">
        <lane id=":2395151470_1_0" index="0" disallow="tram rail_urban rail rail_electric rail_fast ship" speed="8.33" length="9.24" shape="2133.07,600.59 2141.22,596.23"/>
    </edge>
    <edge id=":2408601276_0" function="internal">
        <lane id=":2408601276_0_0" index="0" disallow="tram rail_urban rail rail_electric rail_fast ship" speed="8.33" length="0.10" shape="737.68,539.99 737.68,539.99"/>
    </edge>
    <edge id=":244223273_0" function="internal">
        <lane id=":244223273_0_0" index="0" disallow="tram rail_urban rail rail_electric rail_fast ship" speed="5.89" length="9.11" shape="1492.06,1145.91 1494.69,1145.69 1496.31,1144.68 1496.93,1142.87 1496.55,1140.26"/>
    </edge>
    <edge id=":244223273_1" function="internal">
        <lane id=":244223273_1_0" index="0" disallow="tram rail_urban rail rail_electric rail_fast ship" speed="8.33" length="11.53" shape="1492.06,1145.91 1495.26,1146.09 1497.81,1146.20 1500.37,1146.22 1503.58,1146.14"/>
    </edge>
    <edge id=":244223275_0" function="internal">
        <lane id=":244223275_0_0" index="0" disallow="tram rail_urban rail rail_electric rail_fast ship" speed="9.23" length="6.11" shape="969.36,1038.27 969.97,1039.91 970.73,1040.88 971.79,1041.64 973.30,1042.65"/>
    </edge>
    <edge id=":244223277_0" function="internal">
        <lane id=":244223277_0_0" index="0" disallow="tram rail_urban rail rail_electric rail_fast ship" speed="6.16" length="9.05" shape="688.27,964.87 685.76,964.45 683.85,964.99 682.55,966.48 681.84,968.93"/>
    </edge>
    <edge id=":244223277_1" function="internal">
        <lane id=":244223277_1_0" index="0" disallow="tram rail_urban rail rail_electric rail_fast ship" speed="11.11" length="15.53" shape="688.27,964.87 673.44,960.27"/>
    </edge>
    <edge id=":244223277_2" function="internal">
        <lane id=":244223277_2_0" index="0" disallow="tram rail_urban rail rail_electric rail_fast ship" speed="8.33" length="4.27" shape="688.27,964.87 684.53,963.09 684.44,963.00"/>
    </edge>
    <edge id=":244223277_13" function="internal">
        <lane id=":244223277_13_0" index="0" disallow="tram rail_urban rail rail_electric rail_fast ship" speed="8.33" length="11.13" shape="684.44,963.00 682.04,960.53 680.78,957.19 680.77,953.08"/>
    </edge>
    <edge id=":244223277_3" function="internal">
        <lane id=":244223277_3_0" index="0" disallow="tram rail_urban rail rail_electric rail_fast ship" speed="7.56" length="10.87" shape="683.94,953.50 683.95,956.41 684.84,958.76 686.60,960.57 689.24,961.83"/>
    </edge>
    <edge id=":244223277_4" function="internal">
        <lane id=":244223277_4_0" index="0" disallow="tram rail_urban rail rail_electric rail_fast ship" speed="8.33" length="15.56" shape="683.94,953.50 681.84,968.93"/>
    </edge>
    <edge id=":244223277_5" function="internal">
        <lane id=":244223277_5_0" index="0" disallow="tram rail_urban rail rail_electric rail_fast ship" speed="7.74" length="4.16" shape="683.94,953.50 682.80,957.51"/>
    </edge>
    <edge id=":244223277_6" function="internal">
        <lane id=":244223277_6_0" index="0" disallow="tram rail_urban rail rail_electric rail_fast ship" speed="3.65" length="1.44" shape="683.94,953.50 682.99,954.59"/>
    </edge>
    <edge id=":244223277_14" function="internal">
        <lane id=":244223277_14_0" index="0" disallow="tram rail_urban rail rail_electric rail_fast ship" speed="7.74" length="10.67" shape="682.80,957.51 680.67,959.97 677.55,960.89 673.44,960.27"/>
    </edge>
    <edge id=":244223277_15" function="internal">
        <lane id=":244223277_15_0" index="0" disallow="tram rail_urban rail rail_electric rail_fast ship" speed="3.65" length="3.23" shape="682.99,954.59 682.14,954.88 681.40,954.37 680.77,953.08"/>
    </edge>
    <edge id=":244223277_7" function="internal">
        <lane id=":244223277_7_0" index="0" disallow="tram rail_urban rail rail_electric rail_fast ship" speed="6.19" length="9.05" shape="674.36,957.21 676.87,957.59 678.77,957.02 680.07,955.52 680.77,953.08"/>
    </edge>
    <edge id=":244223277_8" function="internal">
        <lane id=":244223277_8_0" index="0" disallow="tram rail_urban rail rail_electric rail_fast ship" speed="11.11" length="15.59" shape="674.36,957.21 689.24,961.83"/>
    </edge>
    <edge id=":244223277_9" function="internal">
        <lane id=":244223277_9_0" index="0" disallow="tram rail_urban rail rail_electric rail_fast ship" speed="8.81" length="4.37" shape="674.36,957.21 678.10,958.93 678.28,959.11"/>
    </edge>
    <edge id=":244223277_16" function="internal">
        <lane id=":244223277_16_0" index="0" disallow="tram rail_urban rail rail_electric rail_fast ship" speed="8.81" length="11.00" shape="678.28,959.11 680.60,961.45 681.84,964.78 681.84,968.93"/>
    </edge>
    <edge id=":244223277_10" function="internal">
        <lane id=":244223277_10_0" index="0" disallow="tram rail_urban rail rail_electric rail_fast ship" speed="7.47" length="10.77" shape="678.67,968.49 678.67,965.59 677.80,963.25 676.06,961.48 673.44,960.27"/>
    </edge>
    <edge id=":244223277_11" function="internal">
        <lane id=":244223277_11_0" index="0" disallow="tram rail_urban rail rail_electric rail_fast ship" speed="8.33" length="15.55" shape="678.67,968.49 680.77,953.08"/>
    </edge>
    <edge id=":244223277_12" function="internal">
        <lane id=":244223277_12_0" index="0" disallow="tram rail_urban rail rail_electric rail_fast ship" speed="7.73" length="4.19" shape="678.67,968.49 679.83,964.47"/>
    </edge>
    <edge id=":244223277_17" function="internal">
        <lane id=":244223277_17_0" index="0" disallow="tram rail_urban rail rail_electric rail_fast ship" speed="7.73" length="10.71" shape="679.83,964.47 681.98,962.01 685.11,961.13 689.24,961.83"/>
    </edge>
    <edge id=":244223479_0" function="internal">
        <lane id=":244223479_0_0" index="0" disallow="tram rail_urban rail rail_electric rail_fast ship" speed="5.92" length="8.17" shape="1497.79,499.94 1495.41,499.47 1493.59,499.85 1492.35,501.06 1491.66,503.11"/>
    </edge>
    <edge id=":244223479_1" function="internal">
        <lane id=":244223479_1_0" index="0" disallow="tram rail_urban rail rail_electric rail_fast ship" speed="8.33" length="9.23" shape="1497.79,499.94 1489.08,496.88"/>
    </edge>
    <edge id=":2466707853_0" function="internal">
        <lane id=":2466707853_0_0" index="0" disallow="tram rail_urban rail rail_electric rail_fast ship" speed="8.33" length="10.29" shape="733.33,576.12 734.71,565.92"/>
    </edge>
    <edge id=":2466707853_1" function="internal">
        <lane id=":2466707853_1_0" index="0" disallow="tram rail_urban rail rail_electric rail_fast ship" speed="8.33" length="10.40" shape="733.33,576.12 733.95,573.70 735.06,571.48 736.69,569.45 738.82,567.61"/>
    </edge>
    <edge id=":2498403607_0" function="internal">
        <lane id=":2498403607_0_0" index="0" disallow="tram rail_urban rail rail_electric rail_fast ship" speed="3.65" length="4.67" shape="1374.69,638.05 1375.46,636.82 1376.25,636.40 1377.06,636.77 1377.89,637.95"/>
    </edge>
    <edge id=":2498403607_1" function="internal">
        <lane id=":2498403607_1_0" index="0" disallow="tram rail_urban rail rail_electric rail_fast ship" speed="6.12" length="7.65" shape="1371.56,634.98 1374.30,635.19 1376.27,635.75 1377.46,636.67 1377.89,637.95"/>
    </edge>
    <edge id=":250734621_0" function="internal">
        <lane id=":250734621_0_0" index="0" disallow="tram rail_urban rail rail_electric rail_fast ship" speed="8.33" length="14.81" shape="2752.14,1233.91 2751.30,1229.31 2751.36,1225.71 2751.53,1222.54 2751.01,1219.22"/>
    </edge>
    <edge id=":250734621_1" function="internal">
        <lane id=":250734621_1_0" index="0" disallow="tram rail_urban rail rail_electric rail_fast ship" speed="8.33" length="3.74" shape="2755.21,1233.01 2754.83,1229.29"/>
    </edge>
    <edge id=":250734621_10" function="internal">
        <lane id=":250734621_10_0" index="0" disallow="tram rail_urban rail rail_electric rail_fast ship" speed="8.33" length="12.99" shape="2754.83,1229.29 2754.80,1229.08 2756.07,1225.71 2759.00,1222.90 2763.59,1220.64"/>
    </edge>
    <edge id=":250734621_2" function="internal">
        <lane id=":250734621_2_0" index="0" disallow="tram rail_urban rail rail_electric rail_fast ship" speed="6.76" length="9.37" shape="2764.78,1223.61 2762.65,1224.79 2761.36,1226.44 2760.93,1228.58 2761.35,1231.20"/>
    </edge>
    <edge id=":250734621_3" function="internal">
        <lane id=":250734621_3_0" index="0" disallow="tram rail_urban rail rail_electric rail_fast ship" speed="8.33" length="16.54" shape="2764.78,1223.61 2759.75,1224.86 2755.78,1224.54 2752.87,1222.66 2751.01,1219.22"/>
    </edge>
    <edge id=":250734621_4" function="internal">
        <lane id=":250734621_4_0" index="0" disallow="tram rail_urban rail rail_electric rail_fast ship" speed="7.05" length="11.16" shape="2754.07,1218.27 2755.28,1220.38 2757.27,1221.48 2760.04,1221.57 2763.59,1220.64"/>
    </edge>
    <edge id=":250734621_5" function="internal">
        <lane id=":250734621_5_0" index="0" disallow="tram rail_urban rail rail_electric rail_fast ship" speed="8.33" length="14.70" shape="2754.07,1218.27 2755.54,1221.30 2757.48,1223.85 2759.54,1226.85 2761.35,1231.20"/>
        <lane id=":250734621_5_1" index="1" disallow="tram rail_urban rail rail_electric rail_fast ship" speed="8.33" length="14.70" shape="2754.07,1218.27 2758.28,1232.11"/>
    </edge>
    <edge id=":250734621_7" function="internal">
        <lane id=":250734621_7_0" index="0" disallow="tram rail_urban rail rail_electric rail_fast ship" speed="7.14" length="11.53" shape="2744.40,1226.88 2747.94,1225.60 2750.22,1223.89 2751.25,1221.77 2751.01,1219.22"/>
    </edge>
    <edge id=":250734621_8" function="internal">
        <lane id=":250734621_8_0" index="0" disallow="tram rail_urban rail rail_electric rail_fast ship" speed="8.33" length="20.19" shape="2744.40,1226.88 2750.82,1225.09 2755.87,1223.46 2759.97,1221.99 2763.59,1220.64"/>
    </edge>
    <edge id=":250734621_9" function="internal">