<?xml version="1.0" encoding="UTF-8"?>

<!-- generated on 2023-09-24 12:18:54 by Eclipse SUMO polyconvert Version 1.18.0
<configuration xmlns:xsi="http://www.w3.org/2001/XMLSchema-instance" xsi:noNamespaceSchemaLocation="http://sumo.dlr.de/xsd/polyconvertConfiguration.xsd">

    <input>
        <net-file value="osm.net.xml"/>
        <osm-files value="osm_bbox.osm.xml"/>
        <osm.keep-full-type value="true"/>
        <type-file value="${SUMO_HOME}/data/typemap/osmPolyconvert.typ.xml"/>
    </input>

    <output>
        <output-file value="osm.poly.xml"/>
    </output>

    <report>
        <verbose value="true"/>
    </report>

</configuration>
-->

<additional xmlns:xsi="http://www.w3.org/2001/XMLSchema-instance" xsi:noNamespaceSchemaLocation="http://sumo.dlr.de/xsd/additional_file.xsd">
    <location netOffset="-683047.85,-4928376.68" convBoundary="-1519.48,-4788.05,4417.09,3064.94" origBoundary="11.281214,44.442675,11.357599,44.512915" projParameter="+proj=utm +zone=32 +ellps=WGS84 +datum=WGS84 +units=m +no_defs"/>

    <poly id="102003609" type="building.yes" color="255,230,230" fill="1" layer="-1.00" shape="2325.161333,247.443707 2313.232707,254.118209 2320.072707,266.252935 2332.001637,259.567339 2325.161333,247.443707"/>
    <poly id="102003617" type="building.yes" color="255,230,230" fill="1" layer="-1.00" shape="2302.917936,234.347085 2293.790820,243.802953 2302.334945,251.995282 2311.469698,242.550760 2302.917936,234.347085"/>
    <poly id="102003633" type="building.yes" color="255,230,230" fill="1" layer="-1.00" shape="2251.511832,217.761906 2257.559232,231.463678 2273.451539,224.490791 2267.404164,210.789005 2251.511832,217.761906"/>
    <poly id="102003644" type="building.yes" color="255,230,230" fill="1" layer="-1.00" shape="2278.092179,227.802590 2275.035602,214.152745 2284.982882,211.935139 2283.676246,206.128178 2292.742518,204.107795 2297.105371,223.575720 2278.092179,227.802590"/>
    <poly id="102003685" type="building.yes" color="255,230,230" fill="1" layer="-1.00" shape="2337.254183,272.112591 2344.020299,290.181691 2352.513852,287.033360 2350.843248,282.550030 2357.189330,280.196437 2352.102116,266.599773 2337.254183,272.112591"/>
    <poly id="102003687" type="building.yes" color="255,230,230" fill="1" layer="-1.00" shape="2305.862497,297.953310 2300.531122,280.358742 2313.414498,276.479576 2318.745842,294.074155 2305.862497,297.953310"/>
    <poly id="1034074503" type="amenity.university" color="237,199,199" fill="1" layer="-2.00" shape="2056.595518,336.404726 2049.612130,294.928658 2021.501650,224.891790 2071.488845,205.538156 2050.955852,152.770408 2076.541765,144.939249 2108.047015,243.854812 2106.890399,265.733316 2251.239745,230.093951 2262.168963,239.766090 2278.500311,307.244793 2306.858012,300.716476 2323.239638,347.441423 2307.984513,353.287306 2325.288763,382.729498 2216.945987,411.311604 2150.223875,429.286574 2097.660522,436.882224 2086.435650,384.246121 2095.575691,370.688211 2092.973127,360.086323 2085.629686,330.139309 2072.057521,333.065467 2062.296564,335.177523 2056.595518,336.404726"/>
    <poly id="104863278" type="leisure.pitch" color="207,245,201" fill="1" layer="-2.00" shape="1475.569921,1215.554110 1475.446674,1201.965777 1478.337105,1201.892247 1493.649233,1201.782502 1496.675514,1201.968528 1496.349706,1215.677508 1475.569921,1215.554110"/>
    <poly id="104863278#1" type="sport.basketball" color="79,230,125" fill="1" layer="-2.00" shape="1475.569921,1215.554110 1475.446674,1201.965777 1478.337105,1201.892247 1493.649233,1201.782502 1496.675514,1201.968528 1496.349706,1215.677508 1475.569921,1215.554110"/>
    <poly id="108222960" type="amenity.restaurant" color="237,199,199" fill="1" layer="-1.00" shape="686.214328,952.534102 688.733330,938.587060 708.235498,944.519195 704.564762,958.111267 686.214328,952.534102"/>
    <poly id="108222960#1" type="building.yes" color="255,230,230" fill="1" layer="-1.00" shape="686.214328,952.534102 688.733330,938.587060 708.235498,944.519195 704.564762,958.111267 686.214328,952.534102"/>
    <poly id="1092734704" type="landuse.grass" color="194,194,130" fill="1" layer="-3.00" shape="2232.366004,288.041977 2237.608475,286.712912 2238.963188,292.788040 2242.187667,292.457544 2246.590217,291.838253 2247.390989,293.617565 2247.019458,296.041581 2245.585266,298.335240 2241.924534,299.731637 2235.519908,301.349951 2232.366004,288.041977"/>
    <poly id="1092734705" type="landuse.grass" color="194,194,130" fill="1" layer="-3.00" shape="2231.807259,286.147282 2237.337889,284.759731 2233.667639,273.093458 2228.743507,274.142564 2231.807259,286.147282"/>
    <poly id="1092734706" type="landuse.grass" color="194,194,130" fill="1" layer="-3.00" shape="2237.723147,272.086289 2238.030707,274.696423 2243.633470,278.035633 2248.006156,277.626713 2250.052384,278.707823 2250.884208,282.188913 2256.170510,285.741450 2260.636647,284.846058 2258.797633,279.568649 2255.387396,274.413187 2252.452455,272.962106 2248.682593,271.487217 2244.817441,271.121308 2241.445322,271.047383 2237.723147,272.086289"/>
    <poly id="1092735050" type="landuse.grass" color="194,194,130" fill="1" layer="-3.00" shape="2248.758866,298.114466 2249.112147,294.656055 2248.887057,292.781990 2248.206225,291.261788 2261.916637,288.517801 2263.731537,294.361488 2248.758866,298.114466"/>
    <poly id="1094268595" type="building.yes" color="255,230,230" fill="1" layer="-1.00" shape="2643.993048,442.756684 2630.866486,447.350844 2636.987185,465.135059 2637.273798,465.965907 2650.512284,461.352727 2643.993048,442.756684"/>
    <poly id="1094268596" type="building.yes" color="255,230,230" fill="1" layer="-1.00" shape="1929.094221,1429.635950 1935.216390,1431.188799 1936.025860,1427.910123 1936.921834,1424.667261 1930.760224,1423.102170 1929.094221,1429.635950"/>
    <poly id="1094268597" type="building.yes" color="255,230,230" fill="1" layer="-1.00" shape="1938.873338,1417.608001 1936.921834,1424.667261 1936.025860,1427.910123 1944.773297,1430.315932 1954.215599,1432.908298 1957.847373,1433.901093 1960.702835,1423.599205 1938.873338,1417.608001"/>
    <poly id="1094268598" type="building.yes" color="255,230,230" fill="1" layer="-1.00" shape="1957.206720,1413.094176 1960.774768,1400.122286 1952.713902,1397.913883 1949.145553,1410.896885 1957.206720,1413.094176"/>
    <poly id="1094268599" type="building.yes" color="255,230,230" fill="1" layer="-1.00" shape="1426.851058,715.056091 1428.935117,721.529700 1434.259328,719.824364 1432.175273,713.350753 1429.163667,714.321342 1426.851058,715.056091"/>
    <poly id="1094564792" type="building.yes" color="255,230,230" fill="1" layer="-1.00" shape="2286.288952,261.009230 2290.545522,268.856915 2296.809419,265.478161 2297.520118,266.787999 2303.824412,263.388170 2298.864788,254.241973 2286.288952,261.009230"/>
    <poly id="1094565147" type="building.yes" color="255,230,230" fill="1" layer="-1.00" shape="2442.045414,304.485290 2444.145628,308.691871 2448.093249,306.725693 2445.992719,302.530219 2442.045414,304.485290"/>
    <poly id="1094565393" type="building.yes" color="255,230,230" fill="1" layer="-1.00" shape="2557.957041,369.594474 2562.559961,378.397198 2565.589369,376.816190 2560.986135,368.024572 2557.957041,369.594474"/>
    <poly id="1094565808" type="building.yes" color="255,230,230" fill="1" layer="-1.00" shape="2463.352669,768.137506 2459.670167,769.188521 2461.718264,776.328513 2465.400445,775.288607 2463.352669,768.137506"/>
    <poly id="1094565809" type="building.yes" color="255,230,230" fill="1" layer="-1.00" shape="2458.165108,763.931687 2459.670167,769.188521 2463.352669,768.137506 2461.847295,762.891779 2458.165108,763.931687"/>
    <poly id="1094566097" type="building.yes" color="255,230,230" fill="1" layer="-1.00" shape="2284.594786,1318.183322 2280.745403,1319.796624 2282.697818,1324.432519 2286.547199,1322.819218 2284.594786,1318.183322"/>
    <poly id="1094566098" type="building.yes" color="255,230,230" fill="1" layer="-1.00" shape="2276.059625,1314.749237 2274.717298,1311.598191 2270.601749,1313.337308 2271.944078,1316.488354 2276.059625,1314.749237"/>
    <poly id="1094566099" type="building.yes" color="255,230,230" fill="1" layer="-1.00" shape="2283.190082,1308.015688 2274.717298,1311.598191 2276.059625,1314.749237 2284.532406,1311.166737 2283.190082,1308.015688"/>
    <poly id="1094566380" type="building.yes" color="255,230,230" fill="1" layer="-1.00" shape="1806.215916,1083.069738 1801.151379,1082.925624 1800.980698,1088.923900 1806.045230,1089.068014 1806.215916,1083.069738"/>
    <poly id="1094566381" type="building.yes" color="255,230,230" fill="1" layer="-1.00" shape="1806.226707,1090.240454 1800.454670,1090.632054 1800.870752,1096.702611 1806.642467,1096.322120 1806.226707,1090.240454"/>
    <poly id="1094566707" type="building.yes" color="255,230,230" fill="1" layer="-1.00" shape="1159.638214,872.848461 1163.577422,873.115792 1163.767161,870.353078 1159.827951,870.085746 1159.638214,872.848461"/>
    <poly id="1094566708" type="building.yes" color="255,230,230" fill="1" layer="-1.00" shape="1143.744962,870.696958 1138.731130,870.443639 1138.236175,880.323597 1143.250315,880.565808 1143.744962,870.696958"/>
    <poly id="1094748342" type="building.yes" color="255,230,230" fill="1" layer="-1.00" shape="1035.623685,462.568490 1042.258405,457.865063 1039.709742,454.291053 1036.291100,456.706598 1035.150723,455.106817 1031.926691,457.394476 1035.623685,462.568490"/>
    <poly id="1094748394" type="building.yes" color="255,230,230" fill="1" layer="-1.00" shape="1099.637028,419.559356 1105.949772,415.269304 1102.679110,410.496421 1096.374317,414.786702 1099.637028,419.559356"/>
    <poly id="1098818468" type="leisure.park" color="207,245,201" fill="1" layer="-2.00" shape="2065.869399,282.951950 2064.420357,285.489795 2064.246540,288.797686 2066.300317,293.525303 2070.352781,295.975308 2079.092794,295.901922 2086.368057,293.052050 2096.266933,280.516279 2096.500381,278.188377 2095.309981,274.441405 2092.506744,273.394360 2089.015750,273.861857 2065.869399,282.951950"/>
    <poly id="1133284002" type="building.university" color="255,230,230" fill="1" layer="-1.00" shape="2072.288009,268.271484 2069.584995,260.912893 2062.701194,263.429312 2064.089456,267.215264 2052.879284,271.309333 2048.972214,260.681428 2051.272325,259.835362 2037.409900,222.098757 2051.209377,217.066775 2056.201833,230.660465 2051.746936,232.278918 2057.603267,248.231773 2059.475699,248.151710 2061.252201,248.924918 2062.301664,250.077624 2062.744903,251.279762 2064.739059,250.558387 2064.059722,248.704741 2066.078050,247.972939 2063.774347,241.681834 2070.955546,239.062717 2073.805893,246.836832 2077.585571,245.454847 2077.204641,244.021028 2077.558704,242.207940 2078.816130,240.809681 2080.007215,240.343354 2074.156032,224.490676 2069.708761,226.120451 2064.278823,211.402594 2080.467530,205.471564 2084.788870,217.200749 2083.052003,217.829397 2092.522871,243.501408 2094.308076,242.851907 2098.406953,254.007803 2087.172562,258.112243 2085.924630,254.708259 2079.748470,256.966900 2082.533246,264.527931 2077.442907,266.383950 2072.288009,268.271484"/>
    <poly id="1133284005" type="amenity.toilets" color="237,199,199" fill="1" layer="-1.00" shape="2057.514258,248.562745 2059.067654,252.698024 2062.486020,251.428023 2062.035146,250.214551 2061.014642,249.162723 2059.394642,248.482909 2057.514258,248.562745"/>
    <poly id="1133284006" type="amenity.toilets" color="237,199,199" fill="1" layer="-1.00" shape="2078.038221,245.767900 2081.907584,244.310654 2080.508842,240.613335 2079.045186,241.149715 2077.887926,242.384074 2077.604122,243.965708 2078.038221,245.767900"/>
    <poly id="113938606" type="leisure.garden" color="207,245,201" fill="1" layer="-2.00" shape="1164.174611,189.947374 1146.159167,152.551035 1134.349970,126.136222 1136.638675,116.985243 1133.877173,101.543515 1122.853916,39.810623 1124.523192,33.421291 1174.431843,23.230006 1174.633853,16.665687 1222.512867,6.772959 1256.784939,182.012460 1164.174611,189.947374"/>
    <poly id="1151959409" type="leisure.pitch" color="207,245,201" fill="1" layer="-2.00" shape="1229.312805,877.581404 1271.638859,863.785493 1257.599674,820.120395 1215.265428,833.916178 1229.312805,877.581404"/>
    <poly id="1151959409#1" type="sport.multi" color="79,230,125" fill="1" layer="-2.00" shape="1229.312805,877.581404 1271.638859,863.785493 1257.599674,820.120395 1215.265428,833.916178 1229.312805,877.581404"/>
    <poly id="1151959410" type="building.yes" color="255,230,230" fill="1" layer="-1.00" shape="1210.202550,859.519208 1216.675423,879.590843 1227.901598,875.996133 1221.428754,855.924486 1210.202550,859.519208"/>
    <poly id="1167160309" type="landuse.retail" color="194,194,130" fill="1" layer="-3.00" shape="3261.668492,1606.295918 3272.659831,1607.289349 3277.994690,1638.492366 3319.406794,1629.675133 3324.630736,1622.587813 3386.322435,1607.460345 3379.653069,1572.038887 3299.174751,1587.194389 3291.739863,1544.880739 3312.054515,1541.505891 3307.176094,1519.632048 3287.707711,1520.963417 3268.193388,1415.992137 3272.450371,1414.324397 3270.425063,1395.056014 3262.497206,1391.827009 3247.719122,1305.345975 3239.276662,1261.235936 3227.341257,1251.521984 3221.908030,1220.671989 3229.725390,1211.391071 3217.994068,1150.155444 3444.949549,1186.105084 3442.390995,1166.576745 3440.038843,1142.629738 3439.835105,1141.134201 3439.626265,1139.816390 3444.183276,1139.346891 3443.917339,1136.137538 3443.457847,1131.355121 3442.913811,1125.914369 3442.617475,1120.992114 3442.297178,1117.458806 3438.700609,1101.102392 3444.967121,1099.570259 3450.487211,1098.261279 3451.984825,1097.926293 3467.495261,1094.536212 3479.406892,1091.498632 3486.591555,1090.137424 3487.441677,1093.508076 3489.641185,1093.115434 3491.231977,1092.860952 3491.015513,1091.531804 3494.920928,1091.032510 3498.493964,1091.023943 3499.139404,1096.534316 3501.010703,1096.210072 3501.510102,1098.770225 3503.990753,1098.285608 3505.139582,1104.277356 3506.333879,1110.348229 3507.873018,1115.217243 3511.038105,1114.174197 3513.352401,1121.144369 3516.484376,1131.228575 3520.027219,1141.413520 3523.343356,1140.374818 3526.378991,1139.405881 3528.529213,1138.789496 3531.396291,1137.871305 3533.689038,1136.725395 3541.242818,1132.762335 3544.466187,1130.798260 3545.998240,1132.865577 3547.689968,1134.637319 3545.450319,1135.873686 3559.059869,1152.673443 3561.353627,1150.938366 3563.894036,1153.912904 3565.067001,1152.968296 3582.562083,1169.679621 3579.350390,1172.622316 3580.915819,1174.635016 3582.259325,1176.063251 3589.160470,1185.121847 3585.694710,1187.768194 3582.779192,1189.818912 3586.514593,1200.220660 3588.360851,1198.828482 3590.716395,1202.420279 3592.395326,1204.636350 3598.256965,1212.208753 3601.280014,1209.738682 3628.655158,1187.490691 3619.265511,1181.684552 3621.889227,1178.435935 3590.759263,1162.155401 3592.245399,1158.896323 3597.914514,1149.353985 3592.254696,1145.556079 3590.531734,1144.594975 3586.606568,1142.458892 3582.743408,1140.380178 3576.744141,1137.595308 3570.087045,1133.057279 3570.976372,1131.737659 3573.079780,1128.596364 3576.170908,1122.926515 3579.311641,1123.839409 3580.206616,1120.107544 3580.923132,1110.400675 3593.830125,1111.494106 3596.862162,1111.759094 3605.232239,1112.344215 3607.178869,1112.444616 3607.110710,1113.432079 3613.779987,1113.946108 3613.907023,1112.571239 3616.714207,1112.907595 3620.943597,1113.318171 3635.025651,1114.778963 3635.624310,1110.560553 3644.895364,1111.082681 3644.961385,1109.339194 3661.572222,1109.471964 3667.075663,1109.574558 3667.469861,1105.272454 3667.656650,1104.310635 3669.384207,1104.004543 3668.669497,1099.248116 3662.928804,1099.094233 3660.012510,1084.558188 3656.350002,1085.464580 3657.341173,1089.461871 3654.080670,1090.224179 3647.268304,1092.196227 3648.461727,1096.354968 3644.659976,1096.846032 3631.273534,1097.206181 3617.145189,1097.078120 3607.619985,1096.815541 3589.189546,1094.929718 3587.517091,1094.425867 3585.743720,1094.941890 3583.840321,1094.998377 3582.009810,1094.456636 3568.599019,1093.448812 3555.786679,1093.214168 3554.799521,1093.230280 3549.917446,1093.657016 3544.437503,1093.844241 3539.904033,1093.769611 3538.228039,1093.665887 3534.853477,1093.413323 3530.267618,1092.392243 3526.322721,1089.833183 3523.448684,1086.560037 3520.785532,1082.870499 3518.269293,1079.329704 3516.487361,1075.987872 3516.154487,1074.833253 3515.920383,1071.624810 3516.044183,1070.638945 3516.342922,1069.380177 3517.957844,1066.069197 3521.323196,1062.764020 3524.081623,1060.919986 3526.150179,1059.823218 3530.524540,1057.680967 3535.107855,1055.466901 3539.520699,1053.370230 3543.635222,1051.409515 3544.272580,1051.105426 3544.446513,1051.421700 3547.652408,1035.938747 3525.197583,1043.120234 3519.278689,1032.822584 3536.539581,1010.328193 3536.556648,1004.469980 3534.875333,1003.165460 3533.964873,1002.450052 3531.861474,1005.313433 3528.060200,1003.570048 3513.662017,999.254452 3513.747411,997.389234 3513.813052,995.934782 3514.364618,976.451261 3514.149233,962.615428 3517.688598,962.950529 3518.156501,951.090924 3518.289740,943.957585 3518.393066,937.034611 3518.279491,933.785162 3518.134246,899.495916 3448.502414,911.837655 3436.874105,902.776950 3427.162328,839.419925 3414.525590,766.785169 3405.793870,764.644670 3301.056859,755.180648 3289.010240,731.278090 3170.503184,723.022144 3154.127012,714.392875 3113.203423,707.361459 3113.989225,740.757316 3118.315632,820.545977 3097.534213,825.420092 3092.173103,837.839854 3083.623545,857.672268 3021.299832,876.597995 3039.985465,947.381724 3056.677365,950.805890 3070.420733,1024.927801 3214.041884,984.664845 3212.531834,977.662275 3210.093636,965.841647 3208.494217,958.625293 3205.337096,942.459524 3204.859495,940.244656 3204.241347,937.380969 3197.355146,898.073773 3197.008367,892.683180 3200.928187,891.961777 3200.550593,885.703171 3200.323335,881.972445 3200.020071,878.117252 3199.102324,866.551447 3198.528438,861.865835 3197.409868,853.974015 3195.664225,843.251607 3199.349038,842.679103 3201.675503,842.301116 3221.520269,839.290375 3223.629613,836.493771 3224.580426,831.640648 3228.317527,828.134758 3232.250744,827.502691 3237.376798,829.950902 3242.566598,829.065829 3258.958159,826.045117 3279.213092,949.680689 3290.888879,1025.889502 3283.888977,1027.189525 3293.985877,1090.468405 3267.974568,1095.158569 3244.956949,1098.400531 3082.414745,1134.540824 3078.151710,1101.423303 2980.025778,1130.262753 2844.482659,1160.356241 2769.597204,1163.750000 2755.820294,1155.796362 2723.482827,1163.865164 2725.810547,1197.660730 2726.907112,1208.842448 2729.540990,1210.229581 2741.760073,1248.721506 2743.577299,1251.397095 2772.821324,1242.973115 2814.546975,1232.705210 2875.981320,1217.743280 2894.385785,1228.586671 2908.077120,1226.455030 2911.390842,1214.376748 2927.922129,1211.715010 2996.789674,1205.893985 3010.229867,1203.644191 3013.073018,1199.667908 3027.175976,1198.170855 3056.011661,1191.804185 3065.357709,1189.426093 3113.375838,1185.354664 3139.363792,1179.240258 3161.368277,1172.467029 3164.790577,1179.657809 3179.880793,1177.589062 3182.633876,1186.750620 3190.463293,1185.652153 3196.362378,1214.414344 3199.517686,1239.518183 3218.562890,1330.946215 3234.361447,1410.986303 3234.788452,1425.506315 3249.500393,1489.317753 3257.893921,1552.592264 3261.517481,1577.164867 3261.668492,1606.295918"/>
    <poly id="1167602727" type="natural.tree_row" color="140,196,107" fill="0" layer="-4.00" shape="1134.396957,1501.213091 1085.514438,1381.577218"/>
    <poly id="1167602728" type="natural.tree_row" color="140,196,107" fill="0" layer="-4.00" shape="1103.344098,1381.615764 1144.621446,1489.974846"/>
    <poly id="1168322695" type="natural.tree_row" color="140,196,107" fill="0" layer="-4.00" shape="2125.825597,585.351076 2106.963107,505.305211 2094.426421,440.625410 2082.260850,384.416211 2088.817796,369.906457"/>
    <poly id="1168322696" type="natural.tree_row" color="140,196,107" fill="0" layer="-4.00" shape="2117.319551,586.442686 2098.456962,506.396848 2085.912245,441.716840 2073.746603,385.507659"/>
    <poly id="1168322697" type="amenity.parking" color="184,184,179" fill="1" layer="-1.00" shape="2233.671277,367.854361 2221.918392,323.162646 2156.811396,338.326599 2160.055302,348.201963 2129.001904,355.510077 2131.096969,362.695738 2203.245046,346.464953 2213.030247,373.369010 2233.671277,367.854361"/>
    <poly id="1168322698" type="amenity.parking" color="184,184,179" fill="1" layer="-1.00" shape="2094.819308,356.737148 2108.398047,353.299848 2103.261684,332.476000 2125.346388,326.846506 2114.464845,284.781228 2107.322559,287.990601 2103.194204,293.231324 2099.675099,306.415777 2096.452452,326.512290 2087.733760,328.631773 2094.819308,356.737148"/>
    <poly id="1169019939" type="landuse.grass" color="194,194,130" fill="1" layer="-3.00" shape="2134.253348,1001.576060 2147.650120,1005.593199 2165.615684,1004.537891 2173.471696,999.992704 2178.811777,968.428306 2170.821696,966.510721 2174.177005,959.347018 2177.254573,956.622176 2175.514222,953.193004 2172.001344,953.882151 2162.074629,958.768518 2154.717864,978.736041 2140.363841,980.383479 2135.865912,995.252019 2134.253348,1001.576060"/>
    <poly id="1169019940" type="landuse.grass" color="194,194,130" fill="1" layer="-3.00" shape="2151.387388,936.741328 2161.987589,938.655481 2159.976568,945.557356 2161.161540,948.092452 2165.069492,948.059346 2177.726466,940.071379 2178.894935,937.603381 2171.545143,899.829667 2169.674741,896.774766 2166.346253,897.135666 2163.364368,904.876983 2159.655409,904.348801 2153.025098,930.373538 2151.387388,936.741328"/>
    <poly id="1169054486" type="landuse.grass" color="194,194,130" fill="1" layer="-3.00" shape="2244.750091,915.813377 2268.310253,910.004214 2265.306161,898.434706 2241.825183,904.535182 2244.750091,915.813377"/>
    <poly id="1169054487" type="landuse.grass" color="194,194,130" fill="1" layer="-3.00" shape="2212.144447,934.949581 2209.182591,923.570297 2221.530405,920.009258 2224.479253,931.843973 2212.144447,934.949581"/>
    <poly id="1169054488" type="landuse.grass" color="194,194,130" fill="1" layer="-3.00" shape="2156.922947,843.049892 2160.134722,855.436793 2161.921405,860.312482 2164.510354,864.121584 2169.404639,867.173756 2174.493939,868.130390 2202.213232,860.460746 2204.856375,857.345551 2204.429709,853.053359 2197.886933,832.745120 2196.135097,831.950333 2167.790806,840.046869 2156.922947,843.049892"/>
    <poly id="1169054490" type="landuse.grass" color="194,194,130" fill="1" layer="-3.00" shape="2293.129690,921.139953 2294.058606,923.723355 2296.863111,924.714957 2315.528951,920.600630 2317.056876,918.365249 2316.604302,914.983896 2309.977698,891.771600 2308.736536,889.812954 2305.911417,889.543361 2288.502107,894.238298 2286.825253,895.557846 2286.736841,898.656955 2293.129690,921.139953"/>
    <poly id="1169054491" type="landuse.grass" color="194,194,130" fill="1" layer="-3.00" shape="2206.931170,810.257737 2202.273974,811.447855 2199.230933,800.121852 2206.834650,798.015226 2207.656490,801.006886 2209.879496,800.347674 2211.693203,799.810194 2212.401129,802.331695 2218.456373,800.670071 2220.556985,808.767528 2212.148962,810.895671 2210.403075,809.333981 2206.931170,810.257737"/>
    <poly id="1169054492" type="landuse.grass" color="194,194,130" fill="1" layer="-3.00" shape="2235.551328,804.492672 2243.018304,802.437772 2244.150263,800.135497 2247.902650,798.864016 2252.090442,797.671659 2249.001990,786.266514 2237.684308,789.412217 2239.621956,796.526742 2233.824300,798.084523 2235.551328,804.492672"/>
    <poly id="1169054493" type="landuse.grass" color="194,194,130" fill="1" layer="-3.00" shape="2155.883749,823.676786 2155.046557,817.594186 2162.893989,788.235713 2193.322536,779.609373 2194.317823,783.495332 2189.362306,784.821474 2191.146306,791.186765 2192.584101,790.716381 2195.484892,801.171202 2198.074821,810.527700 2195.893158,811.132510 2196.470007,813.227827 2187.045928,815.827293 2186.820668,815.076035 2174.821857,818.391410 2175.003213,819.008012 2163.277282,822.242253 2163.110561,821.670536 2155.883749,823.676786"/>
    <poly id="1169075124" type="natural.tree_row" color="140,196,107" fill="0" layer="-4.00" shape="1946.043280,1565.356171 1946.463592,1562.611142 1947.332106,1558.656015 1998.863960,1360.441459"/>
    <poly id="1169075126" type="natural.tree_row" color="140,196,107" fill="0" layer="-4.00" shape="1939.206162,1568.796680 1940.141975,1561.919715 1941.442582,1555.364414 1992.124580,1359.604688"/>
    <poly id="1169077261" type="natural.tree_row" color="140,196,107" fill="0" layer="-4.00" shape="2002.503508,1319.267951 2031.866775,1203.276606 2056.588050,1103.339347"/>
    <poly id="1169077262" type="natural.tree_row" color="140,196,107" fill="0" layer="-4.00" shape="2010.188702,1320.142792 2036.332416,1217.455652 2064.932131,1104.277481"/>
    <poly id="1169077263" type="natural.tree_row" color="140,196,107" fill="0" layer="-4.00" shape="2090.332403,972.165007 2141.181757,780.012787"/>
    <poly id="1169077264" type="natural.tree_row" color="140,196,107" fill="0" layer="-4.00" shape="2066.222455,1064.860232 2088.050987,982.694434"/>
    <poly id="1169077265" type="natural.tree_row" color="140,196,107" fill="0" layer="-4.00" shape="2072.134656,1072.955085 2095.452748,984.873074"/>
    <poly id="1169077266" type="natural.tree_row" color="140,196,107" fill="0" layer="-4.00" shape="2144.630270,767.626763 2158.838217,713.058502"/>
    <poly id="1169077267" type="natural.tree_row" color="140,196,107" fill="0" layer="-4.00" shape="2151.950439,766.534747 2166.284682,711.725526"/>
    <poly id="1169078309" type="landuse.grass" color="194,194,130" fill="1" layer="-3.00" shape="2056.414799,771.782929 2062.690189,773.006720 2067.787262,760.567582 2079.815230,763.211514 2082.834880,762.241451 2084.049234,758.162789 2086.511276,758.888847 2088.952465,748.897586 2081.639547,747.221763 2076.448223,733.644581 2048.752918,726.774520 2056.905710,702.883058 2050.591998,701.046755 2048.943077,706.413722 2046.005530,705.618549 2041.112190,721.520871 2035.589853,726.821961 2037.768056,735.277296 2051.505892,753.878212 2057.726710,755.900861 2060.302679,757.097065 2056.414799,771.782929"/>
    <poly id="1169078310" type="landuse.grass" color="194,194,130" fill="1" layer="-3.00" shape="2069.787397,719.136180 2075.212227,721.447438 2082.140258,720.155180 2078.075785,706.965850 2086.922702,704.238605 2083.975192,695.694628 2069.110867,700.429341 2068.538266,701.813759 2069.139577,703.331678 2068.350313,706.455281 2070.718545,707.123074 2072.129907,710.931928 2069.787397,719.136180"/>
    <poly id="1169078311" type="landuse.grass" color="194,194,130" fill="1" layer="-3.00" shape="2072.218823,668.712354 2084.813442,669.349150 2085.076233,667.666864 2088.031241,668.129044 2088.284816,666.490963 2095.406607,667.616612 2102.906047,669.731321 2114.074459,664.846880 2115.688362,658.756327 2114.772773,656.818120 2110.007767,658.716721 2105.390611,643.699564 2099.417952,643.017979 2098.762036,649.280355 2092.541630,648.636184 2093.360171,640.855422 2087.745982,640.439752 2084.648054,653.091481 2080.290079,652.155767 2082.613831,634.557176 2078.280129,634.444808 2076.004373,651.755727 2069.268837,654.109589 2071.442468,666.355678 2072.218823,668.712354"/>
    <poly id="1169078312" type="landuse.grass" color="194,194,130" fill="1" layer="-3.00" shape="2030.468603,675.304745 2027.042043,690.837534 2037.305369,693.697917 2041.094995,694.750816 2046.784178,692.811795 2057.707513,696.246861 2060.329001,695.287676 2056.076724,681.425998 2058.308543,673.196355 2057.227048,656.412329 2052.802497,654.741018 2050.241914,656.913688 2047.764962,665.647728 2048.952212,667.827120 2047.661165,671.525627 2042.924670,670.190061 2040.643541,678.195965 2030.468603,675.304745"/>
    <poly id="1169100423" type="landuse.grass" color="194,194,130" fill="1" layer="-3.00" shape="1952.719379,676.836791 1963.341745,677.150387 1961.417051,667.612845 1970.781230,665.722824 1973.446871,678.861118 1964.074442,680.762017 1962.424338,684.216858 1962.575425,688.412239 1969.922077,691.700837 1993.301025,697.858415 1995.636924,690.721178 1992.414306,689.317597 1979.860281,685.580513 1983.829641,672.219847 1993.811244,675.194422 1995.236337,664.273723 1988.501248,662.981328 1983.095619,661.949140 1984.695015,657.481219 1985.603254,652.693458 1978.974739,649.614284 1975.210170,646.283168 1974.822580,642.848119 1964.666614,641.802956 1965.122144,640.337377 1965.915414,632.600356 1966.736365,626.965222 1975.090961,628.114724 1975.765233,622.041853 1976.054568,619.426500 1946.830558,615.081382 1945.763464,630.759204 1958.123862,632.078329 1958.234622,642.720375 1956.151674,662.493647 1954.225048,665.040146 1952.934658,674.586187 1952.719379,676.836791"/>
    <poly id="1169100424" type="leisure.pitch" color="207,245,201" fill="1" layer="-2.00" shape="1939.026464,733.498932 1950.986170,736.307430 1956.586971,712.598886 1944.619272,709.790152 1939.026464,733.498932"/>
    <poly id="1169100424#1" type="sport.basketball" color="79,230,125" fill="1" layer="-2.00" shape="1939.026464,733.498932 1950.986170,736.307430 1956.586971,712.598886 1944.619272,709.790152 1939.026464,733.498932"/>
    <poly id="1169100425" type="landuse.grass" color="194,194,130" fill="1" layer="-3.00" shape="1920.905452,676.264482 1920.049668,680.609066 1929.027455,683.065818 1930.874506,682.195702 1936.150105,647.827878 1931.871983,647.161344 1933.610693,631.091317 1939.902639,631.459449 1940.006375,627.816053 1929.176070,626.418240 1927.284213,651.221803 1924.038147,672.162593 1920.905452,676.264482"/>