<?xml version="1.0" encoding="UTF-8"?>

<!-- generated on 2023-09-24 12:18:55.799195 by osmWebWizard.py v1_18_0+0000-03ecfdea036
<configuration>
    <net-file value="C:\Users\fillo\Sumo\2023-09-24-12-18-48\osm.net.xml.gz"/>
    <output-trip-file value="C:\Users\fillo\Sumo\2023-09-24-12-18-48\osm.passenger.trips.xml"/>
    <route-file value="C:\Users\fillo\Sumo\2023-09-24-12-18-48\osm.passenger.rou.xml"/>
    <prefix value="veh"/>
    <trip-attributes value="departLane=&quot;best&quot;"/>
    <fringe-start-attributes value="departSpeed=&quot;max&quot;"/>
    <vehicle-class value="passenger"/>
    <lanes value="True"/>
    <fringe-factor value="5"/>
    <allow-fringe.min-length value="1000.0"/>
    <via-edge-types value="highway.motorway,highway.motorway_link,highway.trunk_link,highway.primary_link,highway.secondary_link,highway.tertiary_link"/>
    <min-distance value="300.0"/>
    <min-distance.fringe value="10.0"/>
    <remove-loops value="True"/>
    <validate value="True"/>
    <insertion-density value="12.0"/>
</configuration>
-->

<!-- generated on 2023-09-24 12:18:55 by Eclipse SUMO duarouter Version 1.18.0
<configuration xmlns:xsi="http://www.w3.org/2001/XMLSchema-instance" xsi:noNamespaceSchemaLocation="http://sumo.dlr.de/xsd/duarouterConfiguration.xsd">

    <input>
        <net-file value="C:\Users\fillo\Sumo\2023-09-24-12-18-48\osm.net.xml.gz"/>
        <route-files value="C:\Users\fillo\Sumo\2023-09-24-12-18-48\osm.passenger.trips.xml"/>
    </input>

    <output>
        <output-file value="C:\Users\fillo\Sumo\2023-09-24-12-18-48\osm.passenger.trips.xml.tmp"/>
        <alternatives-output value="NUL"/>
        <write-trips value="true"/>
    </output>

    <processing>
        <remove-loops value="true"/>
    </processing>

    <time>
        <begin value="0.0"/>
        <end value="3600.0"/>
    </time>

    <report>
        <no-warnings value="true"/>
        <ignore-errors value="true"/>
        <no-step-log value="true"/>
    </report>

</configuration>
-->

<routes xmlns:xsi="http://www.w3.org/2001/XMLSchema-instance" xsi:noNamespaceSchemaLocation="http://sumo.dlr.de/xsd/routes_file.xsd">
    <vType id="veh_passenger" vClass="passenger"/>
    <trip id="veh0" type="veh_passenger" depart="0.00" departLane="best" from="251471067#0" to="-217845955#1"/>
    <trip id="veh1" type="veh_passenger" depart="4.84" departLane="best" from="914127386#0" to="1188469253"/>
    <trip id="veh4" type="veh_passenger" depart="19.35" departLane="best" from="23271728#0" to="231109180#0"/>
    <trip id="veh5" type="veh_passenger" depart="24.19" departLane="best" departSpeed="max" from="-680837436" to="23837911#3"/>
    <trip id="veh7" type="veh_passenger" depart="33.86" departLane="best" from="26256667#0" to="263173939#0"/>
    <trip id="veh8" type="veh_passenger" depart="38.70" departLane="best" departSpeed="max" from="-685037225#1" to="307688530#1"/>
    <trip id="veh10" type="veh_passenger" depart="48.37" departLane="best" from="-35898872#5" to="35416221#0"/>
    <trip id="veh11" type="veh_passenger" depart="53.21" departLane="best" from="163787530#17" to="-479678379#1"/>
    <trip id="veh12" type="veh_passenger" depart="58.05" departLane="best" from="83202925#2" to="23271728#1"/>
    <trip id="veh13" type="veh_passenger" depart="62.89" departLane="best" from="-26256819#3" to="-33758046"/>
    <trip id="veh14" type="veh_passenger" depart="67.72" departLane="best" from="35898872#6" to="35855795#0"/>
    <trip id="veh15" type="veh_passenger" depart="72.56" departLane="best" from="23290119#1" to="23288944#10"/>
    <trip id="veh16" type="veh_passenger" depart="77.40" departLane="best" departSpeed="max" from="201998907#0" to="292179033#0"/>
    <trip id="veh18" type="veh_passenger" depart="87.07" departLane="best" from="451606952#0" to="292179033#6"/>
    <trip id="veh20" type="veh_passenger" depart="96.75" departLane="best" departSpeed="max" from="-690439693" to="163787530#25"/>
    <trip id="veh21" type="veh_passenger" depart="101.59" departLane="best" departSpeed="max" from="-23290308#13" to="1188469824"/>
    <trip id="veh22" type="veh_passenger" depart="106.42" departLane="best" from="30824033#2" to="163787530#11"/>
    <trip id="veh23" type="veh_passenger" depart="111.26" departLane="best" from="251471064#2" to="-23276777#1"/>
    <trip id="veh24" type="veh_passenger" depart="116.10" departLane="best" departSpeed="max" from="201998907#0" to="454925332"/>
    <trip id="veh25" type="veh_passenger" depart="120.94" departLane="best" departSpeed="max" from="-815893364#1" to="82549437#2"/>
    <trip id="veh26" type="veh_passenger" depart="125.77" departLane="best" from="26256667#0" to="323825894#3"/>
    <trip id="veh27" type="veh_passenger" depart="130.61" departLane="best" departSpeed="max" from="-35916414" to="35855795#0"/>
    <trip id="veh28" type="veh_passenger" depart="135.45" departLane="best" departSpeed="max" from="-35901460#12" to="23288944#0"/>
    <trip id="veh29" type="veh_passenger" depart="140.28" departLane="best" from="96199140#7" to="33523355#3"/>
    <trip id="veh31" type="veh_passenger" depart="149.96" departLane="best" from="36921700" to="35916414"/>
    <trip id="veh32" type="veh_passenger" depart="154.80" departLane="best" departSpeed="max" from="-690439693" to="-232512851"/>
    <trip id="veh33" type="veh_passenger" depart="159.63" departLane="best" from="119742496#0" to="156231178#2"/>
    <trip id="veh34" type="veh_passenger" depart="164.47" departLane="best" departSpeed="max" from="-61789566#3" to="82549440#0"/>
    <trip id="veh35" type="veh_passenger" depart="169.31" departLane="best" from="475866693" to="183743770"/>
    <trip id="veh36" type="veh_passenger" depart="174.15" departLane="best" departSpeed="max" from="275183484#0" to="23288944#7"/>
    <trip id="veh38" type="veh_passenger" depart="183.82" departLane="best" from="23290308#0" to="151766116#0"/>
    <trip id="veh39" type="veh_passenger" depart="188.66" departLane="best" from="235010857" to="685037225#0"/>
    <trip id="veh41" type="veh_passenger" depart="198.33" departLane="best" from="984204139#0" to="238873859"/>
    <trip id="veh42" type="veh_passenger" depart="203.17" departLane="best" departSpeed="max" from="-33523355#3" to="984204139#0"/>
    <trip id="veh43" type="veh_passenger" depart="208.01" departLane="best" from="35855793#0" to="23290103"/>
    <trip id="veh44" type="veh_passenger" depart="212.85" departLane="best" from="-23276766#2" to="23837909#5"/>
    <trip id="veh46" type="veh_passenger" depart="222.52" departLane="best" from="945850920" to="61789566#0"/>
    <trip id="veh47" type="veh_passenger" depart="227.36" departLane="best" departSpeed="max" from="-123179180#2" to="35855793#5"/>
    <trip id="veh48" type="veh_passenger" depart="232.20" departLane="best" departSpeed="max" from="30824033#0" to="26256817#0"/>
    <trip id="veh49" type="veh_passenger" depart="237.03" departLane="best" departSpeed="max" from="-815893364#1" to="23837911#0"/>
    <trip id="veh50" type="veh_passenger" depart="241.87" departLane="best" departSpeed="max" from="-33523355#3" to="23290195#0"/>
    <trip id="veh51" type="veh_passenger" depart="246.71" departLane="best" departSpeed="max" from="23288931#0" to="914176829#0"/>
    <trip id="veh52" type="veh_passenger" depart="251.55" departLane="best" from="475866692" to="151766116#0"/>
    <trip id="veh54" type="veh_passenger" depart="261.22" departLane="best" from="1169436004#0" to="33523355#3"/>
    <trip id="veh55" type="veh_passenger" depart="266.06" departLane="best" from="23288944#0" to="-479678379#1"/>
    <trip id="veh57" type="veh_passenger" depart="275.73" departLane="best" from="35421050" to="251471067#1"/>
    <trip id="veh58" type="veh_passenger" depart="280.57" departLane="best" from="-1111768219#2" to="231109108"/>
    <trip id="veh59" type="veh_passenger" depart="285.41" departLane="best" departSpeed="max" from="-160491479#3" to="815893364#0"/>
    <trip id="veh60" type="veh_passenger" depart="290.24" departLane="best" departSpeed="max" from="1181831142#0" to="-237638594#1"/>
    <trip id="veh61" type="veh_passenger" depart="295.08" departLane="best" from="475866695" to="83202925#0"/>
    <trip id="veh62" type="veh_passenger" depart="299.92" departLane="best" from="-23290308#7" to="23288944#6"/>
    <trip id="veh63" type="veh_passenger" depart="304.76" departLane="best" departSpeed="max" from="23290104#0" to="35901460#0"/>
    <trip id="veh64" type="veh_passenger" depart="309.59" departLane="best" from="156231178#2" to="-36874379#1"/>
    <trip id="veh65" type="veh_passenger" depart="314.43" departLane="best" from="23288931#3" to="263173939#0"/>
    <trip id="veh66" type="veh_passenger" depart="319.27" departLane="best" departSpeed="max" from="-815893364#1" to="648493813#3"/>
    <trip id="veh67" type="veh_passenger" depart="324.11" departLane="best" from="23271728#1" to="1136769362#0"/>
    <trip id="veh70" type="veh_passenger" depart="338.62" departLane="best" departSpeed="max" from="23276559" to="24678342#0"/>
    <trip id="veh71" type="veh_passenger" depart="343.46" departLane="best" departSpeed="max" from="-34521401#2" to="1188469253"/>
    <trip id="veh72" type="veh_passenger" depart="348.29" departLane="best" from="163787530#13" to="307688530#1"/>
    <trip id="veh74" type="veh_passenger" depart="357.97" departLane="best" departSpeed="max" from="-23290104#1" to="33523355#0"/>
    <trip id="veh76" type="veh_passenger" depart="367.64" departLane="best" departSpeed="max" from="-690439694" to="34521401#0"/>
    <trip id="veh77" type="veh_passenger" depart="372.48" departLane="best" departSpeed="max" from="-680837436" to="-36874379#1"/>
    <trip id="veh78" type="veh_passenger" depart="377.32" departLane="best" from="824611553#0" to="292179033#6"/>
    <trip id="veh79" type="veh_passenger" depart="382.16" departLane="best" from="23288931#1" to="35916523"/>
    <trip id="veh80" type="veh_passenger" depart="386.99" departLane="best" from="-35898872#8" to="-939967914#3"/>
    <trip id="veh81" type="veh_passenger" depart="391.83" departLane="best" departSpeed="max" from="-307688530#1" to="-23290171#2"/>
    <trip id="veh82" type="veh_passenger" depart="396.67" departLane="best" from="23271728#1" to="23290344#0"/>
    <trip id="veh83" type="veh_passenger" depart="401.51" departLane="best" from="33523466" to="34521401#0"/>
    <trip id="veh84" type="veh_passenger" depart="406.34" departLane="best" departSpeed="max" from="95408277#0" to="-33758046"/>
    <trip id="veh85" type="veh_passenger" depart="411.18" departLane="best" from="231109181#2" to="23271732#1"/>
    <trip id="veh86" type="veh_passenger" depart="416.02" departLane="best" from="451606952#0" to="1188469824"/>
    <trip id="veh87" type="veh_passenger" depart="420.85" departLane="best" from="475866692" to="23290288#2"/>
    <trip id="veh88" type="veh_passenger" depart="425.69" departLane="best" from="23271728#0" to="163787530#12"/>
    <trip id="veh89" type="veh_passenger" depart="430.53" departLane="best" from="23276766#3" to="61789566#0"/>
    <trip id="veh90" type="veh_passenger" depart="435.37" departLane="best" from="23290250#0" to="-23290308#7"/>
    <trip id="veh91" type="veh_passenger" depart="440.20" departLane="best" from="984204139#0" to="475866696"/>
    <trip id="veh92" type="veh_passenger" depart="445.04" departLane="best" from="945119924#0" to="815893364#0"/>
    <trip id="veh93" type="veh_passenger" depart="449.88" departLane="best" from="43469298#1" to="-530507951#1"/>
    <trip id="veh94" type="veh_passenger" depart="454.72" departLane="best" from="23837909#3" to="1169436004#0"/>
    <trip id="veh95" type="veh_passenger" depart="459.55" departLane="best" from="231109181#0" to="-237638594#1"/>
    <trip id="veh96" type="veh_passenger" depart="464.39" departLane="best" departSpeed="max" from="201998907#0" to="96199140#0"/>
    <trip id="veh97" type="veh_passenger" depart="469.23" departLane="best" departSpeed="max" from="-815893364#1" to="35916523"/>
    <trip id="veh98" type="veh_passenger" depart="474.07" departLane="best" departSpeed="max" from="23288931#0" to="23290104#0"/>
    <trip id="veh99" type="veh_passenger" depart="478.90" departLane="best" from="83202925#2" to="984204137#0"/>
    <trip id="veh100" type="veh_passenger" depart="483.74" departLane="best" from="23290288#0" to="23290032#2"/>
    <trip id="veh101" type="veh_passenger" depart="488.58" departLane="best" from="35898872#3" to="163787534#0"/>
    <trip id="veh102" type="veh_passenger" depart="493.42" departLane="best" from="935852699#0" to="292179033#6"/>
    <trip id="veh103" type="veh_passenger" depart="498.25" departLane="best" from="231109180#0" to="-35898872#8"/>
    <trip id="veh104" type="veh_passenger" depart="503.09" departLane="best" departSpeed="max" from="-23276660" to="307688530#1"/>
    <trip id="veh105" type="veh_passenger" depart="507.93" departLane="best" departSpeed="max" from="23288957#0" to="540393190#0"/>
    <trip id="veh108" type="veh_passenger" depart="522.44" departLane="best" departSpeed="max" from="-690439694" to="-35901460#7"/>
    <trip id="veh109" type="veh_passenger" depart="527.28" departLane="best" departSpeed="max" from="476023745#0" to="1188469824"/>
    <trip id="veh111" type="veh_passenger" depart="536.95" departLane="best" from="232512842#0" to="-30618699"/>
    <trip id="veh112" type="veh_passenger" depart="541.79" departLane="best" from="23289967" to="82549437#0"/>
    <trip id="veh114" type="veh_passenger" depart="551.46" departLane="best" from="119742496#0" to="35901451"/>
    <trip id="veh115" type="veh_passenger" depart="556.30" departLane="best" departSpeed="max" from="23290104#0" to="23290308#12"/>
    <trip id="veh116" type="veh_passenger" depart="561.14" departLane="best" from="984204139#0" to="984204137#0"/>
    <trip id="veh117" type="veh_passenger" depart="565.98" departLane="best" from="23290171#0" to="1169436004#0"/>
    <trip id="veh118" type="veh_passenger" depart="570.81" departLane="best" departSpeed="max" from="-815893364#1" to="824611553#0"/>
    <trip id="veh119" type="veh_passenger" depart="575.65" departLane="best" departSpeed="max" from="475871034" to="648493813#3"/>
    <trip id="veh120" type="veh_passenger" depart="580.49" departLane="best" departSpeed="max" from="201998907#0" to="-52128464#1"/>
    <trip id="veh121" type="veh_passenger" depart="585.33" departLane="best" from="35934892#2" to="35710321"/>
    <trip id="veh122" type="veh_passenger" depart="590.16" departLane="best" from="23288931#3" to="96199140#5"/>
    <trip id="veh124" type="veh_passenger" depart="599.84" departLane="best" from="35901457#2" to="170687890"/>
    <trip id="veh125" type="veh_passenger" depart="604.68" departLane="best" from="23288931#1" to="82549437#5"/>
    <trip id="veh126" type="veh_passenger" depart="609.51" departLane="best" departSpeed="max" from="-35829123#4" to="-35898872#4"/>
    <trip id="veh127" type="veh_passenger" depart="614.35" departLane="best" departSpeed="max" from="-33523355#3" to="292179033#0"/>
    <trip id="veh128" type="veh_passenger" depart="619.19" departLane="best" from="83202925#2" to="323825894#1"/>
    <trip id="veh129" type="veh_passenger" depart="624.03" departLane="best" from="325457399#5" to="1035365081"/>
    <trip id="veh130" type="veh_passenger" depart="628.86" departLane="best" from="-251471064#1" to="151766116#0"/>
    <trip id="veh131" type="veh_passenger" depart="633.70" departLane="best" from="23288944#6" to="690439693"/>
    <trip id="veh132" type="veh_passenger" depart="638.54" departLane="best" from="40062856" to="-33757723"/>
    <trip id="veh133" type="veh_passenger" depart="643.38" departLane="best" from="23271728#1" to="163787530#1"/>
    <trip id="veh134" type="veh_passenger" depart="648.21" departLane="best" from="1136769361" to="35901462"/>
    <trip id="veh135" type="veh_passenger" depart="653.05" departLane="best" from="251471065#0" to="151766116#0"/>
    <trip id="veh136" type="veh_passenger" depart="657.89" departLane="best" departSpeed="max" from="33758046" to="292179033#0"/>
    <trip id="veh138" type="veh_passenger" depart="667.56" departLane="best" from="23290264#0" to="648493813#3"/>
    <trip id="veh139" type="veh_passenger" depart="672.40" departLane="best" departSpeed="max" from="530507951#0" to="263173939#0"/>
    <trip id="veh140" type="veh_passenger" depart="677.24" departLane="best" from="35934893#0" to="-30618699"/>
    <trip id="veh141" type="veh_passenger" depart="682.08" departLane="best" departSpeed="max" from="-35882642#2" to="-35916523"/>
    <trip id="veh142" type="veh_passenger" depart="686.91" departLane="best" departSpeed="max" from="1183454785" to="685037225#0"/>
    <trip id="veh143" type="veh_passenger" depart="691.75" departLane="best" from="35855794#2" to="61789566#0"/>
    <trip id="veh144" type="veh_passenger" depart="696.59" departLane="best" departSpeed="max" from="530507951#0" to="1136769361"/>
    <trip id="veh145" type="veh_passenger" depart="701.42" departLane="best" departSpeed="max" from="814704266#1" to="-33758046"/>
    <trip id="veh146" type="veh_passenger" depart="706.26" departLane="best" from="35487552#0" to="648493813#3"/>
    <trip id="veh147" type="veh_passenger" depart="711.10" departLane="best" departSpeed="max" from="23189378#0" to="325457399#2"/>
    <trip id="veh148" type="veh_passenger" depart="715.94" departLane="best" from="-35898872#4" to="815893364#0"/>
    <trip id="veh149" type="veh_passenger" depart="720.77" departLane="best" from="454925164" to="231109181#0"/>
    <trip id="veh150" type="veh_passenger" depart="725.61" departLane="best" from="35901451" to="648493813#3"/>
    <trip id="veh152" type="veh_passenger" depart="735.29" departLane="best" departSpeed="max" from="163787529" to="815893364#0"/>
    <trip id="veh153" type="veh_passenger" depart="740.12" departLane="best" from="35898872#0" to="648493813#0"/>
    <trip id="veh154" type="veh_passenger" depart="744.96" departLane="best" from="35901451" to="156231178#2"/>
    <trip id="veh155" type="veh_passenger" depart="749.80" departLane="best" from="35710330#0" to="-35710322"/>
    <trip id="veh156" type="veh_passenger" depart="754.64" departLane="best" departSpeed="max" from="455371482" to="61789566#0"/>
    <trip id="veh157" type="veh_passenger" depart="759.47" departLane="best" departSpeed="max" from="-685037225#1" to="448983346#0"/>
    <trip id="veh158" type="veh_passenger" depart="764.31" departLane="best" from="35855794#2" to="1188469253"/>
    <trip id="veh160" type="veh_passenger" depart="773.99" departLane="best" departSpeed="max" from="163787529" to="648493813#0"/>
    <trip id="veh161" type="veh_passenger" depart="778.82" departLane="best" from="935852699#0" to="163787530#12"/>
    <trip id="veh162" type="veh_passenger" depart="783.66" departLane="best" from="262093410#0" to="23288945#0"/>
    <trip id="veh163" type="veh_passenger" depart="788.50" departLane="best" departSpeed="max" from="95408277#0" to="26256817#0"/>
    <trip id="veh164" type="veh_passenger" depart="793.34" departLane="best" departSpeed="max" from="82549436#0" to="35898872#3"/>
    <trip id="veh165" type="veh_passenger" depart="798.17" departLane="best" from="945850920" to="83202925#0"/>
    <trip id="veh166" type="veh_passenger" depart="803.01" departLane="best" from="914176829#0" to="156231178#1"/>
    <trip id="veh167" type="veh_passenger" depart="807.85" departLane="best" departSpeed="max" from="-33523355#3" to="23290195#0"/>
    <trip id="veh168" type="veh_passenger" depart="812.69" departLane="best" from="33523466" to="171514619"/>
    <trip id="veh169" type="veh_passenger" depart="817.52" departLane="best" from="23288944#0" to="35901450#0"/>
    <trip id="veh170" type="veh_passenger" depart="822.36" departLane="best" from="210196701#2" to="292179033#6"/>
    <trip id="veh171" type="veh_passenger" depart="827.20" departLane="best" departSpeed="max" from="-814704266#1" to="35710332#0"/>
    <trip id="veh172" type="veh_passenger" depart="832.03" departLane="best" from="-1136769360" to="815893364#0"/>
    <trip id="veh173" type="veh_passenger" depart="836.87" departLane="best" from="23290125" to="35855793#0"/>
    <trip id="veh174" type="veh_passenger" depart="841.71" departLane="best" from="33758118" to="34521401#0"/>
    <trip id="veh175" type="veh_passenger" depart="846.55" departLane="best" departSpeed="max" from="171520872#0" to="-275183484#4"/>
    <trip id="veh176" type="veh_passenger" depart="851.38" departLane="best" from="23288931#1" to="448983346#0"/>
    <trip id="veh177" type="veh_passenger" depart="856.22" departLane="best" from="119095431#0" to="475871035"/>
    <trip id="veh178" type="veh_passenger" depart="861.06" departLane="best" from="325457399#5" to="170687890"/>
    <trip id="veh179" type="veh_passenger" depart="865.90" departLane="best" departSpeed="max" from="1183454785" to="23289967"/>
    <trip id="veh180" type="veh_passenger" depart="870.73" departLane="best" from="231109181#2" to="163787530#8"/>
    <trip id="veh181" type="veh_passenger" depart="875.57" departLane="best" departSpeed="max" from="-34523368#1" to="23290069#0"/>
    <trip id="veh184" type="veh_passenger" depart="890.08" departLane="best" from="1181831141" to="263173939#0"/>
    <trip id="veh185" type="veh_passenger" depart="894.92" departLane="best" from="-1111768219#2" to="163787530#23"/>
    <trip id="veh186" type="veh_passenger" depart="899.76" departLane="best" from="23276195#0" to="292179033#6"/>
    <trip id="veh187" type="veh_passenger" depart="904.60" departLane="best" departSpeed="max" from="275183484#0" to="23290308#8"/>
    <trip id="veh188" type="veh_passenger" depart="909.43" departLane="best" from="23276766#1" to="1169436004#0"/>
    <trip id="veh189" type="veh_passenger" depart="914.27" departLane="best" from="23288931#3" to="690439693"/>
    <trip id="veh190" type="veh_passenger" depart="919.11" departLane="best" from="35855794#2" to="325434952"/>
    <trip id="veh191" type="veh_passenger" depart="923.95" departLane="best" departSpeed="max" from="-23290308#13" to="24678342#0"/>
    <trip id="veh192" type="veh_passenger" depart="928.78" departLane="best" from="248200387#5" to="23271728#0"/>
    <trip id="veh193" type="veh_passenger" depart="933.62" departLane="best" from="35901458#0" to="35901450#0"/>
    <trip id="veh194" type="veh_passenger" depart="938.46" departLane="best" from="-30618699" to="1188469253"/>
    <trip id="veh195" type="veh_passenger" depart="943.30" departLane="best" departSpeed="max" from="-475866697#1" to="-217845955#1"/>
    <trip id="veh196" type="veh_passenger" depart="948.13" departLane="best" departSpeed="max" from="-814704266#1" to="23291001#0"/>
    <trip id="veh197" type="veh_passenger" depart="952.97" departLane="best" from="43469298#1" to="-307688530#0"/>
    <trip id="veh199" type="veh_passenger" depart="962.65" departLane="best" departSpeed="max" from="-475866697#1" to="35383153#1"/>
    <trip id="veh200" type="veh_passenger" depart="967.48" departLane="best" from="23288944#7" to="1188469824"/>
    <trip id="veh202" type="veh_passenger" depart="977.16" departLane="best" departSpeed="max" from="33832076#0" to="35901461#0"/>
    <trip id="veh203" type="veh_passenger" depart="981.99" departLane="best" departSpeed="max" from="-33523355#3" to="23290112"/>
    <trip id="veh204" type="veh_passenger" depart="986.83" departLane="best" departSpeed="max" from="-37711918" to="914176831#0"/>
    <trip id="veh205" type="veh_passenger" depart="991.67" departLane="best" departSpeed="max" from="23288957#0" to="-23290308#4"/>
    <trip id="veh206" type="veh_passenger" depart="996.51" departLane="best" departSpeed="max" from="23288931#0" to="40062856"/>
    <trip id="veh209" type="veh_passenger" depart="1011.02" departLane="best" departSpeed="max" from="476023745#0" to="325457398#0"/>
    <trip id="veh210" type="veh_passenger" depart="1015.86" departLane="best" from="325457399#5" to="23837911#1"/>
    <trip id="veh211" type="veh_passenger" depart="1020.69" departLane="best" from="35916524" to="263173939#0"/>
    <trip id="veh213" type="veh_passenger" depart="1030.37" departLane="best" from="23288931#3" to="132648784#0"/>
    <trip id="veh214" type="veh_passenger" depart="1035.21" departLane="best" departSpeed="max" from="814704266#1" to="33523355#3"/>
    <trip id="veh215" type="veh_passenger" depart="1040.04" departLane="best" from="156231178#2" to="248200387#1"/>
    <trip id="veh216" type="veh_passenger" depart="1044.88" departLane="best" departSpeed="max" from="24678292#0" to="163787528"/>
    <trip id="veh217" type="veh_passenger" depart="1049.72" departLane="best" from="23290280#0" to="163787530#20"/>
    <trip id="veh218" type="veh_passenger" depart="1054.56" departLane="best" from="83202925#2" to="230600621"/>
    <trip id="veh219" type="veh_passenger" depart="1059.39" departLane="best" departSpeed="max" from="-690439693" to="35221735#0"/>
    <trip id="veh220" type="veh_passenger" depart="1064.23" departLane="best" from="-65292476" to="-26256819#3"/>
    <trip id="veh221" type="veh_passenger" depart="1069.07" departLane="best" departSpeed="max" from="23189378#0" to="26256824#0"/>
    <trip id="veh222" type="veh_passenger" depart="1073.91" departLane="best" departSpeed="max" from="23189378#0" to="108831007#1"/>
    <trip id="veh223" type="veh_passenger" depart="1078.74" departLane="best" from="-23253102#1" to="690439693"/>
    <trip id="veh224" type="veh_passenger" depart="1083.58" departLane="best" from="235010856" to="35383153#0"/>
    <trip id="veh225" type="veh_passenger" depart="1088.42" departLane="best" from="448983346#3" to="35901460#10"/>
    <trip id="veh227" type="veh_passenger" depart="1098.09" departLane="best" from="163787530#6" to="35901454"/>
    <trip id="veh228" type="veh_passenger" depart="1102.93" departLane="best" from="-448983345#1" to="914127386#0"/>
    <trip id="veh229" type="veh_passenger" depart="1107.77" departLane="best" from="232512842#0" to="35898872#6"/>
    <trip id="veh230" type="veh_passenger" depart="1112.60" departLane="best" from="23290208#3" to="323825894#1"/>
    <trip id="veh232" type="veh_passenger" depart="1122.28" departLane="best" departSpeed="max" from="23276559" to="230602341"/>
    <trip id="veh234" type="veh_passenger" depart="1131.95" departLane="best" from="23185863#0" to="-530507951#1"/>
    <trip id="veh235" type="veh_passenger" depart="1136.79" departLane="best" departSpeed="max" from="23288931#0" to="-36874379#1"/>
    <trip id="veh236" type="veh_passenger" depart="1141.63" departLane="best" from="238873860#0" to="-217845955#1"/>
    <trip id="veh237" type="veh_passenger" depart="1146.47" departLane="best" from="230599229" to="292179033#6"/>
    <trip id="veh239" type="veh_passenger" depart="1156.14" departLane="best" departSpeed="max" from="-35829123#4" to="23290308#12"/>
    <trip id="veh240" type="veh_passenger" depart="1160.98" departLane="best" departSpeed="max" from="-23253102#1" to="23837909#5"/>
    <trip id="veh241" type="veh_passenger" depart="1165.82" departLane="best" departSpeed="max" from="-61789566#3" to="231109181#0"/>
    <trip id="veh242" type="veh_passenger" depart="1170.65" departLane="best" from="34521685#0" to="23837909#5"/>
    <trip id="veh243" type="veh_passenger" depart="1175.49" departLane="best" departSpeed="max" from="33832076#0" to="475866692"/>
    <trip id="veh244" type="veh_passenger" depart="1180.33" departLane="best" departSpeed="max" from="-814704266#1" to="-30824033#1"/>
    <trip id="veh245" type="veh_passenger" depart="1185.17" departLane="best" departSpeed="max" from="-160491479#3" to="26256667#0"/>
    <trip id="veh246" type="veh_passenger" depart="1190.00" departLane="best" from="329335963#1" to="23276195#0"/>
    <trip id="veh247" type="veh_passenger" depart="1194.84" departLane="best" from="26256666#2" to="35916414"/>
    <trip id="veh248" type="veh_passenger" depart="1199.68" departLane="best" from="26256819#0" to="35901460#3"/>
    <trip id="veh249" type="veh_passenger" depart="1204.52" departLane="best" from="82549439#0" to="1035365081"/>
    <trip id="veh250" type="veh_passenger" depart="1209.35" departLane="best" departSpeed="max" from="-160491479#3" to="-479678379#1"/>
    <trip id="veh251" type="veh_passenger" depart="1214.19" departLane="best" departSpeed="max" from="-34523368#1" to="34521401#0"/>
    <trip id="veh253" type="veh_passenger" depart="1223.87" departLane="best" from="323825894#1" to="35901460#10"/>
    <trip id="veh254" type="veh_passenger" depart="1228.70" departLane="best" departSpeed="max" from="-35916414" to="323825894#3"/>
    <trip id="veh255" type="veh_passenger" depart="1233.54" departLane="best" departSpeed="max" from="33832076#0" to="-35898872#2"/>
    <trip id="veh256" type="veh_passenger" depart="1238.38" departLane="best" from="35901460#0" to="945850932"/>
    <trip id="veh257" type="veh_passenger" depart="1243.21" departLane="best" departSpeed="max" from="-33523355#3" to="-217845955#1"/>
    <trip id="veh259" type="veh_passenger" depart="1252.89" departLane="best" from="83202925#2" to="23288944#7"/>
    <trip id="veh260" type="veh_passenger" depart="1257.73" departLane="best" from="325457399#2" to="-307688530#0"/>
    <trip id="veh261" type="veh_passenger" depart="1262.56" departLane="best" from="323422052" to="984204139#0"/>
    <trip id="veh262" type="veh_passenger" depart="1267.40" departLane="best" from="-33523355#0" to="35901463#0"/>
    <trip id="veh263" type="veh_passenger" depart="1272.24" departLane="best" from="43469298#6" to="323825894#0"/>
    <trip id="veh264" type="veh_passenger" depart="1277.08" departLane="best" departSpeed="max" from="-34521401#2" to="96199132#0"/>
    <trip id="veh265" type="veh_passenger" depart="1281.91" departLane="best" from="35710321" to="23275450#1"/>
    <trip id="veh266" type="veh_passenger" depart="1286.75" departLane="best" from="23271759#0" to="23287341#0"/>