<?xml version="1.0" encoding="UTF-8"?>

<!-- generated on 2023-10-09 17:12:23.551121 by randomTrips.py v1_18_0+0000-03ecfdea036
<configuration>
    <net-file value="./assets\grid_large.net.xml"/>
    <route-file value="./assets\grid_large.rou.xml"/>
    <end value="1000.0"/>
</configuration>
-->

<routes xmlns:xsi="http://www.w3.org/2001/XMLSchema-instance" xsi:noNamespaceSchemaLocation="http://sumo.dlr.de/xsd/routes_file.xsd">
    <trip id="0" depart="0.00" from="HJ34HJ35" to="AH2AH1"/>
    <trip id="1" depart="1.00" from="DE268DE267" to="CP127CQ127"/>
    <trip id="2" depart="2.00" from="IM51IN51" to="HU79HU78"/>
    <trip id="3" depart="3.00" from="KH223KH222" to="BA178BA179"/>
    <trip id="4" depart="4.00" from="EW266EW267" to="AJ147AJ148"/>
    <trip id="5" depart="5.00" from="CN298CN299" to="FV263FU263"/>
    <trip id="6" depart="6.00" from="AI153AI154" to="CH46CH47"/>
    <trip id="7" depart="7.00" from="HM70HL70" to="GH224GG224"/>
    <trip id="8" depart="8.00" from="CO173CP173" to="GU299GU298"/>
    <trip id="9" depart="9.00" from="JI282JH282" to="AC153AB153"/>
    <trip id="10" depart="10.00" from="JH25JH26" to="IB192IC192"/>
    <trip id="11" depart="11.00" from="DY141DY142" to="BU50BT50"/>
    <trip id="12" depart="12.00" from="LA82LA83" to="DX116DX115"/>
    <trip id="13" depart="13.00" from="BC107BC108" to="BD159BC159"/>
    <trip id="14" depart="14.00" from="JU11JU10" to="GZ117HA117"/>
    <trip id="15" depart="15.00" from="JH96JH95" to="IK47IK46"/>
    <trip id="16" depart="16.00" from="GE5GD5" to="LF289LE289"/>
    <trip id="17" depart="17.00" from="EJ268EJ267" to="GJ258GK258"/>
    <trip id="18" depart="18.00" from="JO277JP277" to="HD233HE233"/>
    <trip id="19" depart="19.00" from="JY18JY17" to="GR145GQ145"/>
    <trip id="20" depart="20.00" from="ID172IE172" to="AN93AN92"/>
    <trip id="21" depart="21.00" from="CQ236CQ237" to="DI79DI80"/>
    <trip id="22" depart="22.00" from="AY13AY14" to="CR92CR91"/>
    <trip id="23" depart="23.00" from="BE235BD235" to="DF235DG235"/>
    <trip id="24" depart="24.00" from="HI272HH272" to="EF23EE23"/>
    <trip id="25" depart="25.00" from="EH131EI131" to="CK9CK10"/>
    <trip id="26" depart="26.00" from="DC157DB157" to="KU3KU2"/>
    <trip id="27" depart="27.00" from="HM191HL191" to="HA285HA284"/>
    <trip id="28" depart="28.00" from="BZ236CA236" to="IK268IL268"/>
    <trip id="29" depart="29.00" from="BX150BY150" to="EJ72EI72"/>
    <trip id="30" depart="30.00" from="LK265LK264" to="HJ80HK80"/>
    <trip id="31" depart="31.00" from="GL115GK115" to="HX179HX180"/>
    <trip id="32" depart="32.00" from="JS285JR285" to="IY279IY278"/>
    <trip id="33" depart="33.00" from="CQ5CP5" to="AJ63AJ62"/>
    <trip id="34" depart="34.00" from="DQ297DQ296" to="DC218DC219"/>
    <trip id="35" depart="35.00" from="CL218CM218" to="KW276KW275"/>
    <trip id="36" depart="36.00" from="KC295KC294" to="DQ233DR233"/>
    <trip id="37" depart="37.00" from="HO24HN24" to="EO2EO3"/>
    <trip id="38" depart="38.00" from="KO142KN142" to="FH282FI282"/>
    <trip id="39" depart="39.00" from="DB257DB258" to="CW130CW131"/>
    <trip id="40" depart="40.00" from="GM201GN201" to="DA84DA83"/>
    <trip id="41" depart="41.00" from="GT190GS190" to="KJ13KJ12"/>
    <trip id="42" depart="42.00" from="EP65EO65" to="CN83CM83"/>
    <trip id="43" depart="43.00" from="LN104LM104" to="FW60FV60"/>
    <trip id="44" depart="44.00" from="BB229BB228" to="AO198AO199"/>
    <trip id="45" depart="45.00" from="BH124BH123" to="HG146HF146"/>
    <trip id="46" depart="46.00" from="JD229JD228" to="EW285EX285"/>
    <trip id="47" depart="47.00" from="AT175AS175" to="EK247EK246"/>
    <trip id="48" depart="48.00" from="LM259LM258" to="GC294GD294"/>
    <trip id="49" depart="49.00" from="LF123LF122" to="JY114JX114"/>
    <trip id="50" depart="50.00" from="AD286AD287" to="II128IJ128"/>
    <trip id="51" depart="51.00" from="HW213HW214" to="GF119GG119"/>
    <trip id="52" depart="52.00" from="DC144DC143" to="HK159HK160"/>
    <trip id="53" depart="53.00" from="BH278BI278" to="FA224FA225"/>
    <trip id="54" depart="54.00" from="FG138FG137" to="KZ78KZ77"/>
    <trip id="55" depart="55.00" from="KC253KC252" to="DB136DB137"/>
    <trip id="56" depart="56.00" from="FU147FV147" to="CB34CA34"/>
    <trip id="57" depart="57.00" from="KN257KN256" to="KA92JZ92"/>
    <trip id="58" depart="58.00" from="DL271DK271" to="HJ266HJ267"/>
    <trip id="59" depart="59.00" from="HA271HB271" to="BU106BV106"/>
    <trip id="60" depart="60.00" from="IU268IU267" to="GF44GF43"/>
    <trip id="61" depart="61.00" from="IZ220IZ221" to="GD124GD123"/>
    <trip id="62" depart="62.00" from="AA161AB161" to="DT190DT191"/>
    <trip id="63" depart="63.00" from="AG122AG121" to="KS239KS238"/>
    <trip id="64" depart="64.00" from="KD215KC215" to="JP190JO190"/>
    <trip id="65" depart="65.00" from="DO195DO194" to="AR261AR262"/>
    <trip id="66" depart="66.00" from="KD158KC158" to="KX62KX61"/>
    <trip id="67" depart="67.00" from="AZ74AY74" to="FP47FP46"/>
    <trip id="68" depart="68.00" from="AU94AV94" to="IU113IU112"/>
    <trip id="69" depart="69.00" from="IV267IU267" to="BM28BN28"/>
    <trip id="70" depart="70.00" from="FM261FL261" to="GI77GJ77"/>
    <trip id="71" depart="71.00" from="DB271DB270" to="KB246KC246"/>
    <trip id="72" depart="72.00" from="EW94EX94" to="CL285CK285"/>
    <trip id="73" depart="73.00" from="GF37GG37" to="IK63IK62"/>
    <trip id="74" depart="74.00" from="CI233CI234" to="DP264DP265"/>
    <trip id="75" depart="75.00" from="LM180LL180" to="HM6HM7"/>
    <trip id="76" depart="76.00" from="FB224FB223" to="FZ171FZ170"/>
    <trip id="77" depart="77.00" from="BK232BK231" to="CP248CO248"/>
    <trip id="78" depart="78.00" from="DX237DW237" to="GU220GU221"/>
    <trip id="79" depart="79.00" from="CR146CQ146" to="CO155CO156"/>
    <trip id="80" depart="80.00" from="AV238AW238" to="HH171HH172"/>
    <trip id="81" depart="81.00" from="CQ50CQ51" to="KL213KM213"/>
    <trip id="82" depart="82.00" from="JX292JW292" to="AV227AV228"/>
    <trip id="83" depart="83.00" from="CT243CU243" to="HS264HS265"/>
    <trip id="84" depart="84.00" from="CM211CM210" to="BN67BN66"/>
    <trip id="85" depart="85.00" from="KU217KV217" to="GP175GP174"/>
    <trip id="86" depart="86.00" from="FL4FL5" to="JB166JA166"/>
    <trip id="87" depart="87.00" from="JI125JI126" to="CF175CF176"/>
    <trip id="88" depart="88.00" from="BD176BD175" to="EZ195EY195"/>
    <trip id="89" depart="89.00" from="EX12EY12" to="FK133FK132"/>
    <trip id="90" depart="90.00" from="IK264IK263" to="HT79HU79"/>
    <trip id="91" depart="91.00" from="LJ101LJ100" to="BD296BE296"/>
    <trip id="92" depart="92.00" from="EQ55EQ56" to="DX65DX64"/>
    <trip id="93" depart="93.00" from="JY187JY186" to="CW295CW296"/>
    <trip id="94" depart="94.00" from="CF159CF158" to="FE264FF264"/>
    <trip id="95" depart="95.00" from="EW263EV263" to="DF282DE282"/>
    <trip id="96" depart="96.00" from="CX118CX117" to="KQ37KQ36"/>
    <trip id="97" depart="97.00" from="FC91FC90" to="JY160JY159"/>
    <trip id="98" depart="98.00" from="GJ119GK119" to="AP208AP209"/>
    <trip id="99" depart="99.00" from="LN292LN293" to="JQ272JR272"/>
    <trip id="100" depart="100.00" from="LE225LD225" to="KR288KS288"/>
    <trip id="101" depart="101.00" from="JU217JU216" to="BY116BY115"/>
    <trip id="102" depart="102.00" from="FP289FQ289" to="CM172CM171"/>
    <trip id="103" depart="103.00" from="EQ198EQ199" to="AR49AR50"/>
    <trip id="104" depart="104.00" from="EJ32EK32" to="LJ194LK194"/>
    <trip id="105" depart="105.00" from="DB283DB282" to="JB120JC120"/>
    <trip id="106" depart="106.00" from="FG241FG242" to="EW84EW83"/>
    <trip id="107" depart="107.00" from="LA90LB90" to="LM201LM202"/>
    <trip id="108" depart="108.00" from="GK28GK29" to="IH210II210"/>
    <trip id="109" depart="109.00" from="BU265BU266" to="DL130DL129"/>
    <trip id="110" depart="110.00" from="LE201LE200" to="GR293GQ293"/>
    <trip id="111" depart="111.00" from="GG272GF272" to="IQ172IQ173"/>
    <trip id="112" depart="112.00" from="AR1AR0" to="GT157GT156"/>
    <trip id="113" depart="113.00" from="FU60FT60" to="JV272JV273"/>
    <trip id="114" depart="114.00" from="BV208BV207" to="LC100LB100"/>
    <trip id="115" depart="115.00" from="AY166AX166" to="CD74CD73"/>
    <trip id="116" depart="116.00" from="GW224GX224" to="HU228HV228"/>
    <trip id="117" depart="117.00" from="CS288CR288" to="BK142BJ142"/>
    <trip id="118" depart="118.00" from="KG70KG69" to="CV98CV99"/>
    <trip id="119" depart="119.00" from="GW183GW184" to="HD33HD34"/>
    <trip id="120" depart="120.00" from="EV48EV47" to="GT116GS116"/>
    <trip id="121" depart="121.00" from="GA52FZ52" to="KU152KU151"/>
    <trip id="122" depart="122.00" from="CJ214CK214" to="IG31IH31"/>
    <trip id="123" depart="123.00" from="CT29CS29" to="EO42EO41"/>
    <trip id="124" depart="124.00" from="HT213HT212" to="DM126DN126"/>
    <trip id="125" depart="125.00" from="DQ85DQ86" to="IR216IS216"/>
    <trip id="126" depart="126.00" from="AV94AU94" to="FH236FI236"/>
    <trip id="127" depart="127.00" from="LN202LN203" to="LM257LL257"/>
    <trip id="128" depart="128.00" from="AW151AW152" to="CM124CL124"/>
    <trip id="129" depart="129.00" from="DB283DA283" to="KT35KT34"/>
    <trip id="130" depart="130.00" from="KE118KF118" to="KD25KD24"/>
    <trip id="131" depart="131.00" from="EG7EF7" to="BV233BV234"/>
    <trip id="132" depart="132.00" from="JP88JQ88" to="IC8IB8"/>
    <trip id="133" depart="133.00" from="HB220HA220" to="LJ7LK7"/>
    <trip id="134" depart="134.00" from="HO130HP130" to="AC25AD25"/>
    <trip id="135" depart="135.00" from="JK92JK93" to="DL77DL76"/>
    <trip id="136" depart="136.00" from="HQ82HQ81" to="KV223KW223"/>
    <trip id="137" depart="137.00" from="BO227BN227" to="BI51BI50"/>
    <trip id="138" depart="138.00" from="BG183BG182" to="GJ84GI84"/>
    <trip id="139" depart="139.00" from="DD50DD51" to="GZ206HA206"/>
    <trip id="140" depart="140.00" from="IH147IH148" to="CJ161CJ160"/>
    <trip id="141" depart="141.00" from="HI155HI154" to="DB185DA185"/>
    <trip id="142" depart="142.00" from="FQ252FQ253" to="KL207KL206"/>
    <trip id="143" depart="143.00" from="JT278JT277" to="BB71BA71"/>
    <trip id="144" depart="144.00" from="EX12EX11" to="DF130DG130"/>
    <trip id="145" depart="145.00" from="AB184AC184" to="IX154IW154"/>
    <trip id="146" depart="146.00" from="HJ117HK117" to="DA290DA291"/>
    <trip id="147" depart="147.00" from="IO167IO168" to="GJ229GJ228"/>
    <trip id="148" depart="148.00" from="EY192EZ192" to="AD13AC13"/>
    <trip id="149" depart="149.00" from="AW41AX41" to="KE2KD2"/>
    <trip id="150" depart="150.00" from="KK93KL93" to="GH277GG277"/>
    <trip id="151" depart="151.00" from="JQ157JQ156" to="GS292GS291"/>
    <trip id="152" depart="152.00" from="BS263BS262" to="BM213BL213"/>
    <trip id="153" depart="153.00" from="DO255DN255" to="KJ233KJ232"/>
    <trip id="154" depart="154.00" from="JE286JE285" to="JY108JY107"/>
    <trip id="155" depart="155.00" from="KJ229KJ228" to="CL145CL146"/>
    <trip id="156" depart="156.00" from="CW96CW95" to="BF10BF11"/>
    <trip id="157" depart="157.00" from="IZ71IZ70" to="KF112KF113"/>
    <trip id="158" depart="158.00" from="ER8EQ8" to="HE137HE138"/>
    <trip id="159" depart="159.00" from="BU245BU246" to="KS31KT31"/>
    <trip id="160" depart="160.00" from="JZ153KA153" to="LG268LH268"/>
    <trip id="161" depart="161.00" from="JJ11JK11" to="KE163KE162"/>
    <trip id="162" depart="162.00" from="AH282AG282" to="IM5IM4"/>
    <trip id="163" depart="163.00" from="DV2DU2" to="KT107KU107"/>
    <trip id="164" depart="164.00" from="JG23JG24" to="JZ10JZ11"/>
    <trip id="165" depart="165.00" from="JJ118JK118" to="DC142DC143"/>
    <trip id="166" depart="166.00" from="JC118JC119" to="BG269BG268"/>
    <trip id="167" depart="167.00" from="KB225KA225" to="JX207JX208"/>
    <trip id="168" depart="168.00" from="CO64CP64" to="JK50JK49"/>
    <trip id="169" depart="169.00" from="FI12FI11" to="DN277DN276"/>
    <trip id="170" depart="170.00" from="JE222JE223" to="CQ211CQ212"/>
    <trip id="171" depart="171.00" from="AH191AH190" to="CG124CH124"/>
    <trip id="172" depart="172.00" from="DU252DU251" to="JZ133JY133"/>
    <trip id="173" depart="173.00" from="LD54LE54" to="DF59DF60"/>
    <trip id="174" depart="174.00" from="HK200HJ200" to="EP88EO88"/>
    <trip id="175" depart="175.00" from="LI128LI127" to="GE59GD59"/>
    <trip id="176" depart="176.00" from="KV249KV248" to="BI44BI45"/>
    <trip id="177" depart="177.00" from="LE69LE68" to="CB298CB297"/>
    <trip id="178" depart="178.00" from="LC242LC243" to="DB34DB33"/>
    <trip id="179" depart="179.00" from="BG293BH293" to="FA208FA209"/>
    <trip id="180" depart="180.00" from="IK220IK221" to="DQ153DP153"/>
    <trip id="181" depart="181.00" from="GZ48HA48" to="FX213FX212"/>
    <trip id="182" depart="182.00" from="EL266EM266" to="GQ83GQ82"/>
    <trip id="183" depart="183.00" from="CY245CZ245" to="IE243IE242"/>
    <trip id="184" depart="184.00" from="AA282AA283" to="KR223KS223"/>
    <trip id="185" depart="185.00" from="GF239GG239" to="IH294IH295"/>
    <trip id="186" depart="186.00" from="IO225IN225" to="HT128HS128"/>
    <trip id="187" depart="187.00" from="EF190EF189" to="AV156AV155"/>
    <trip id="188" depart="188.00" from="HR150HS150" to="DV139DV140"/>
    <trip id="189" depart="189.00" from="DQ172DQ171" to="JU162JT162"/>
    <trip id="190" depart="190.00" from="IH4II4" to="DM153DL153"/>
    <trip id="191" depart="191.00" from="DO68DO67" to="ES252ER252"/>
    <trip id="192" depart="192.00" from="EQ37ER37" to="DK45DL45"/>
    <trip id="193" depart="193.00" from="BM1BN1" to="EW147EW146"/>
    <trip id="194" depart="194.00" from="KV6KV7" to="HV129HU129"/>
    <trip id="195" depart="195.00" from="KK272KL272" to="HC260HD260"/>
    <trip id="196" depart="196.00" from="DM203DM202" to="GI197GH197"/>
    <trip id="197" depart="197.00" from="AA143AB143" to="DI149DI148"/>
    <trip id="198" depart="198.00" from="EZ0EZ1" to="GR88GR89"/>
    <trip id="199" depart="199.00" from="HO190HO189" to="FJ239FI239"/>
    <trip id="200" depart="200.00" from="FC282FD282" to="CM169CM168"/>
    <trip id="201" depart="201.00" from="FL91FM91" to="KK141KJ141"/>
    <trip id="202" depart="202.00" from="JE278JE279" to="BZ11BY11"/>
    <trip id="203" depart="203.00" from="AZ274BA274" to="FY26FY25"/>
    <trip id="204" depart="204.00" from="HH4HI4" to="DW272DW273"/>
    <trip id="205" depart="205.00" from="JL19JL18" to="IR158IS158"/>
    <trip id="206" depart="206.00" from="HT32HU32" to="CP243CO243"/>
    <trip id="207" depart="207.00" from="CH6CI6" to="AH252AH253"/>
    <trip id="208" depart="208.00" from="CV257CU257" to="FM249FN249"/>
    <trip id="209" depart="209.00" from="JU30JV30" to="AW116AX116"/>
    <trip id="210" depart="210.00" from="EU200EU201" to="HG63HG62"/>
    <trip id="211" depart="211.00" from="CG230CF230" to="IA48IA47"/>
    <trip id="212" depart="212.00" from="FS185FT185" to="CV188CU188"/>
    <trip id="213" depart="213.00" from="HO29HP29" to="AB76AB75"/>
    <trip id="214" depart="214.00" from="IR144IR143" to="IW67IW68"/>
    <trip id="215" depart="215.00" from="BG147BF147" to="EX257EX256"/>
    <trip id="216" depart="216.00" from="CA80CA81" to="LB143LB142"/>
    <trip id="217" depart="217.00" from="FZ201FZ202" to="AP179AP178"/>
    <trip id="218" depart="218.00" from="CW69CW70" to="JU189JT189"/>
    <trip id="219" depart="219.00" from="FG8FF8" to="JG174JG173"/>
    <trip id="220" depart="220.00" from="HS150HT150" to="LK133LJ133"/>
    <trip id="221" depart="221.00" from="GW259GW258" to="KY42KX42"/>
    <trip id="222" depart="222.00" from="KH162KH163" to="HB29HC29"/>
    <trip id="223" depart="223.00" from="IH281IH282" to="FV216FV215"/>
    <trip id="224" depart="224.00" from="JP100JQ100" to="GI191GI190"/>
    <trip id="225" depart="225.00" from="KI90KH90" to="IO93IO92"/>
    <trip id="226" depart="226.00" from="FM211FM212" to="CZ67CZ66"/>
    <trip id="227" depart="227.00" from="CW180CW181" to="HJ161HK161"/>
    <trip id="228" depart="228.00" from="IV265IU265" to="GA201GB201"/>
    <trip id="229" depart="229.00" from="HF8HF7" to="DE232DE233"/>
    <trip id="230" depart="230.00" from="AX223AW223" to="DH52DI52"/>
    <trip id="231" depart="231.00" from="DD26DD27" to="DS100DR100"/>
    <trip id="232" depart="232.00" from="GG106GH106" to="BP287BQ287"/>
    <trip id="233" depart="233.00" from="CR238CS238" to="IA123IA124"/>
    <trip id="234" depart="234.00" from="ID51IE51" to="AT231AS231"/>
    <trip id="235" depart="235.00" from="ES188ET188" to="GG35GG36"/>
    <trip id="236" depart="236.00" from="EU39EU38" to="CK153CK152"/>
    <trip id="237" depart="237.00" from="EW122EV122" to="KL167KM167"/>
    <trip id="238" depart="238.00" from="GT149GT150" to="IA250IA251"/>
    <trip id="239" depart="239.00" from="JW57JW56" to="IV247IV248"/>
    <trip id="240" depart="240.00" from="EK147EK146" to="AC104AB104"/>
    <trip id="241" depart="241.00" from="EB262EB263" to="IR77IR78"/>
    <trip id="242" depart="242.00" from="JV61JV60" to="KZ46KZ47"/>
    <trip id="243" depart="243.00" from="EV31EU31" to="IQ135IQ134"/>
    <trip id="244" depart="244.00" from="GH50GG50" to="GY7GY6"/>
    <trip id="245" depart="245.00" from="CO181CO182" to="CN91CM91"/>
    <trip id="246" depart="246.00" from="FA40FB40" to="AI85AH85"/>
    <trip id="247" depart="247.00" from="DW79DW78" to="HV276HW276"/>
    <trip id="248" depart="248.00" from="ER192ES192" to="BX284BX283"/>
    <trip id="249" depart="249.00" from="FK163FJ163" to="BM228BM227"/>
    <trip id="250" depart="250.00" from="HE266HE267" to="AI189AH189"/>
    <trip id="251" depart="251.00" from="EO16EP16" to="GN177GN178"/>
    <trip id="252" depart="252.00" from="AI19AI18" to="HK33HJ33"/>
    <trip id="253" depart="253.00" from="BO70BO71" to="FI242FI243"/>
    <trip id="254" depart="254.00" from="AP184AP183" to="EJ43EJ44"/>
    <trip id="255" depart="255.00" from="CL273CL274" to="DU138DU137"/>
    <trip id="256" depart="256.00" from="IU164IU165" to="EJ45EJ46"/>
    <trip id="257" depart="257.00" from="IR229IQ229" to="JP210JP209"/>
    <trip id="258" depart="258.00" from="CX47CY47" to="AY40AY39"/>
    <trip id="259" depart="259.00" from="AG114AH114" to="GF47GG47"/>
    <trip id="260" depart="260.00" from="LN8LN9" to="EB117EA117"/>
    <trip id="261" depart="261.00" from="HM91HM90" to="JA161JB161"/>
    <trip id="262" depart="262.00" from="HN221HM221" to="IS138IT138"/>
    <trip id="263" depart="263.00" from="KY278KY277" to="CH89CH90"/>
    <trip id="264" depart="264.00" from="AG196AG195" to="BT6BT7"/>
    <trip id="265" depart="265.00" from="BM114BM113" to="HS32HT32"/>
    <trip id="266" depart="266.00" from="GN142GO142" to="CN243CM243"/>
    <trip id="267" depart="267.00" from="IB2IA2" to="IV82IW82"/>
    <trip id="268" depart="268.00" from="BY235BZ235" to="HA132HA131"/>
    <trip id="269" depart="269.00" from="IQ169IP169" to="BI249BJ249"/>
    <trip id="270" depart="270.00" from="JL270JK270" to="LD14LC14"/>
    <trip id="271" depart="271.00" from="BG269BG270" to="AH84AH83"/>
    <trip id="272" depart="272.00" from="DP284DP283" to="HV130HW130"/>
    <trip id="273" depart="273.00" from="LB15LC15" to="EP112EP113"/>
    <trip id="274" depart="274.00" from="IG207IF207" to="AX102AX103"/>
    <trip id="275" depart="275.00" from="HZ123IA123" to="HG129HH129"/>
    <trip id="276" depart="276.00" from="BE38BD38" to="IX264IX263"/>
    <trip id="277" depart="277.00" from="JU76JV76" to="GY11GX11"/>
    <trip id="278" depart="278.00" from="BK236BL236" to="LI76LI75"/>
    <trip id="279" depart="279.00" from="JA275JA276" to="EA164EA163"/>
    <trip id="280" depart="280.00" from="EY248EZ248" to="EH163EI163"/>
    <trip id="281" depart="281.00" from="FV41FV42" to="DY220DY221"/>
    <trip id="282" depart="282.00" from="JU289JT289" to="JM245JM244"/>
    <trip id="283" depart="283.00" from="BF61BG61" to="LC100LD100"/>
    <trip id="284" depart="284.00" from="HI264HH264" to="JO220JO219"/>
    <trip id="285" depart="285.00" from="IE123IF123" to="FA283FA282"/>
    <trip id="286" depart="286.00" from="IM105IM106" to="LD20LD21"/>
    <trip id="287" depart="287.00" from="DD138DC138" to="JI182JI183"/>
    <trip id="288" depart="288.00" from="GF216GG216" to="FP115FP114"/>
    <trip id="289" depart="289.00" from="FA290FA289" to="IL151IM151"/>
    <trip id="290" depart="290.00" from="DC271DC270" to="JV191JV190"/>
    <trip id="291" depart="291.00" from="JP114JP113" to="BA155BB155"/>
    <trip id="292" depart="292.00" from="KE180KE181" to="CV178CV177"/>
    <trip id="293" depart="293.00" from="FJ216FI216" to="HB111HB112"/>
    <trip id="294" depart="294.00" from="EJ34EJ33" to="AI58AJ58"/>
    <trip id="295" depart="295.00" from="JV12JU12" to="CC292CC291"/>
    <trip id="296" depart="296.00" from="CL40CK40" to="JF154JF153"/>
    <trip id="297" depart="297.00" from="DY149DY150" to="KD74KD75"/>
    <trip id="298" depart="298.00" from="IC169IC168" to="DE98DF98"/>
    <trip id="299" depart="299.00" from="AD179AD178" to="KY152KY151"/>
    <trip id="300" depart="300.00" from="AZ70AZ69" to="IH76IH77"/>
    <trip id="301" depart="301.00" from="FQ256FQ257" to="IT187IS187"/>
    <trip id="302" depart="302.00" from="HZ123HZ122" to="HL289HK289"/>
    <trip id="303" depart="303.00" from="FR168FR167" to="JD298JE298"/>
    <trip id="304" depart="304.00" from="BC132BB132" to="CO267CO266"/>
    <trip id="305" depart="305.00" from="HZ219HY219" to="DN89DN90"/>
    <trip id="306" depart="306.00" from="GS214GT214" to="FL98FL97"/>
    <trip id="307" depart="307.00" from="GD170GD169" to="EX286EX285"/>
    <trip id="308" depart="308.00" from="IP278IO278" to="DV187DV188"/>
    <trip id="309" depart="309.00" from="IC33IC34" to="DD204DE204"/>
    <trip id="310" depart="310.00" from="CX247CX248" to="BK204BJ204"/>
    <trip id="311" depart="311.00" from="CF80CG80" to="BK115BK114"/>
    <trip id="312" depart="312.00" from="GE2GE1" to="IU241IU242"/>
    <trip id="313" depart="313.00" from="CD28CD29" to="CN115CN114"/>
    <trip id="314" depart="314.00" from="FP172FP171" to="IJ171II171"/>
    <trip id="315" depart="315.00" from="LG30LF30" to="GB201GB202"/>
    <trip id="316" depart="316.00" from="DH101DH102" to="BE197BE196"/>
    <trip id="317" depart="317.00" from="CG204CG205" to="CQ202CQ201"/>
    <trip id="318" depart="318.00" from="CB98CC98" to="AE231AE230"/>
    <trip id="319" depart="319.00" from="GE160GD160" to="DE209DF209"/>
    <trip id="320" depart="320.00" from="LG113LG114" to="GJ95GJ94"/>
    <trip id="321" depart="321.00" from="IB134IA134" to="BM119BM120"/>
    <trip id="322" depart="322.00" from="KA196JZ196" to="FR172FR173"/>
    <trip id="323" depart="323.00" from="KB26KB27" to="GQ149GR149"/>
    <trip id="324" depart="324.00" from="FK55FK54" to="FC146FC145"/>
    <trip id="325" depart="325.00" from="CD226CC226" to="AP272AO272"/>
    <trip id="326" depart="326.00" from="KW126KW127" to="FN18FM18"/>
    <trip id="327" depart="327.00" from="JM228JL228" to="EQ170EQ171"/>
    <trip id="328" depart="328.00" from="AW218AW217" to="HG37HH37"/>
    <trip id="329" depart="329.00" from="AQ182AR182" to="BS82BS83"/>
    <trip id="330" depart="330.00" from="GM51GL51" to="DN167DO167"/>
    <trip id="331" depart="331.00" from="LL80LL79" to="BJ296BK296"/>
    <trip id="332" depart="332.00" from="IV154IV153" to="GZ57GZ58"/>
    <trip id="333" depart="333.00" from="JD120JC120" to="CP58CO58"/>
    <trip id="334" depart="334.00" from="GA35GA34" to="FF148FG148"/>
    <trip id="335" depart="335.00" from="FC58FC59" to="JX64JY64"/>
    <trip id="336" depart="336.00" from="LK36LK35" to="DN292DN291"/>
    <trip id="337" depart="337.00" from="HE167HE166" to="HA55HA54"/>
    <trip id="338" depart="338.00" from="IN75IM75" to="KY114KX114"/>
    <trip id="339" depart="339.00" from="CK22CL22" to="CL221CL222"/>
    <trip id="340" depart="340.00" from="HQ112HQ113" to="BV178BW178"/>
    <trip id="341" depart="341.00" from="CA183CA182" to="AW298AW299"/>
    <trip id="342" depart="342.00" from="AB113AC113" to="FF147FG147"/>
    <trip id="343" depart="343.00" from="GW126GV126" to="DJ22DJ23"/>
    <trip id="344" depart="344.00" from="CR256CQ256" to="ID95IE95"/>
    <trip id="345" depart="345.00" from="IC44IC43" to="FG162FH162"/>
    <trip id="346" depart="346.00" from="HY132HY133" to="KQ8KQ7"/>
    <trip id="347" depart="347.00" from="JC155JC154" to="HF222HF221"/>
    <trip id="348" depart="348.00" from="HQ174HQ173" to="KT69KS69"/>
    <trip id="349" depart="349.00" from="EX256EX257" to="GH193GI193"/>
    <trip id="350" depart="350.00" from="HM159HL159" to="KM186KN186"/>
    <trip id="351" depart="351.00" from="JN52JO52" to="AV272AU272"/>
    <trip id="352" depart="352.00" from="BX85BX84" to="DO202DN202"/>
    <trip id="353" depart="353.00" from="IQ251IR251" to="GO297GN297"/>
    <trip id="354" depart="354.00" from="DI286DI287" to="BL233BL232"/>
    <trip id="355" depart="355.00" from="HY237HY238" to="IB51IA51"/>
    <trip id="356" depart="356.00" from="KW257KW256" to="FU138FU139"/>
    <trip id="357" depart="357.00" from="FS138FS139" to="AY192AZ192"/>
    <trip id="358" depart="358.00" from="AM150AN150" to="EZ273EZ274"/>
    <trip id="359" depart="359.00" from="DS41DS42" to="CX163CY163"/>
    <trip id="360" depart="360.00" from="BB262BC262" to="LC192LC193"/>
    <trip id="361" depart="361.00" from="JQ267JQ268" to="GQ240GQ241"/>
    <trip id="362" depart="362.00" from="KZ102KZ101" to="LN53LN54"/>
    <trip id="363" depart="363.00" from="HT261HT260" to="DC91DC92"/>
    <trip id="364" depart="364.00" from="AM181AL181" to="IS32IT32"/>
    <trip id="365" depart="365.00" from="FL144FL145" to="HN201HM201"/>
    <trip id="366" depart="366.00" from="KO265KP265" to="CC263CD263"/>
    <trip id="367" depart="367.00" from="GT24GU24" to="HI19HI18"/>
    <trip id="368" depart="368.00" from="FR240FR241" to="BB256BA256"/>
    <trip id="369" depart="369.00" from="EA225EA224" to="DW120DV120"/>
    <trip id="370" depart="370.00" from="HS88HS87" to="JX138JX137"/>
    <trip id="371" depart="371.00" from="DV107DU107" to="IA100IB100"/>
    <trip id="372" depart="372.00" from="DI254DI253" to="KX190KX191"/>
    <trip id="373" depart="373.00" from="JJ76JK76" to="GJ100GJ101"/>
    <trip id="374" depart="374.00" from="FG227FF227" to="DQ220DQ219"/>
    <trip id="375" depart="375.00" from="DT119DT118" to="LE51LD51"/>
    <trip id="376" depart="376.00" from="ER181ER180" to="FY1FY2"/>
    <trip id="377" depart="377.00" from="LK151LK152" to="HP159HQ159"/>
    <trip id="378" depart="378.00" from="GG34GF34" to="EU104EU105"/>
    <trip id="379" depart="379.00" from="CE216CE215" to="EE262EF262"/>
    <trip id="380" depart="380.00" from="IS47IS46" to="HF250HG250"/>
    <trip id="381" depart="381.00" from="IT64IS64" to="CJ158CK158"/>
    <trip id="382" depart="382.00" from="GI2GI3" to="KS123KS122"/>
    <trip id="383" depart="383.00" from="FB225FC225" to="IB200IC200"/>
    <trip id="384" depart="384.00" from="BK267BJ267" to="LF291LE291"/>
    <trip id="385" depart="385.00" from="HA264GZ264" to="CT78CU78"/>
    <trip id="386" depart="386.00" from="BV285BV284" to="GJ161GI161"/>
    <trip id="387" depart="387.00" from="GJ275GJ276" to="BC145BB145"/>
    <trip id="388" depart="388.00" from="LL216LK216" to="KN281KN282"/>
    <trip id="389" depart="389.00" from="FI222FH222" to="BJ216BJ215"/>
    <trip id="390" depart="390.00" from="JP228JQ228" to="FT239FS239"/>
    <trip id="391" depart="391.00" from="IG65IH65" to="FW278FV278"/>
    <trip id="392" depart="392.00" from="DE138DE137" to="JQ167JR167"/>
    <trip id="393" depart="393.00" from="LH54LI54" to="CV167CV166"/>
    <trip id="394" depart="394.00" from="GJ196GI196" to="EL136EL135"/>
    <trip id="395" depart="395.00" from="KQ194KR194" to="FW226FW225"/>
    <trip id="396" depart="396.00" from="KD264KD263" to="JZ106KA106"/>
    <trip id="397" depart="397.00" from="DE96DF96" to="JC61JB61"/>
    <trip id="398" depart="398.00" from="EU241EU242" to="KU115KU114"/>
    <trip id="399" depart="399.00" from="FW186FW185" to="JM100JM99"/>
    <trip id="400" depart="400.00" from="DG8DF8" to="DL280DK280"/>
    <trip id="401" depart="401.00" from="GU10GU9" to="LN251LN250"/>
    <trip id="402" depart="402.00" from="FQ72FP72" to="BS33BS34"/>
    <trip id="403" depart="403.00" from="GF24GF23" to="DZ266DZ265"/>
    <trip id="404" depart="404.00" from="GJ248GJ249" to="GH101GH100"/>
    <trip id="405" depart="405.00" from="FG269FG270" to="DS268DS269"/>
    <trip id="406" depart="406.00" from="CE32CE33" to="IB140IB139"/>
    <trip id="407" depart="407.00" from="GP235GQ235" to="CS154CT154"/>
    <trip id="408" depart="408.00" from="IY241IY242" to="AN187AO187"/>
    <trip id="409" depart="409.00" from="IP178IQ178" to="ID225ID226"/>
    <trip id="410" depart="410.00" from="JJ172JI172" to="EL68EL67"/>
    <trip id="411" depart="411.00" from="HR106HR107" to="JM117JM116"/>
    <trip id="412" depart="412.00" from="LI100LI99" to="FS262FR262"/>
    <trip id="413" depart="413.00" from="AL191AL190" to="FU285FV285"/>
    <trip id="414" depart="414.00" from="GV101GW101" to="KA296KA295"/>
    <trip id="415" depart="415.00" from="KC119KB119" to="FC132FC133"/>
    <trip id="416" depart="416.00" from="GB38GC38" to="FH127FG127"/>
    <trip id="417" depart="417.00" from="II268II267" to="ET10EU10"/>
    <trip id="418" depart="418.00" from="HO197HN197" to="BU22BU21"/>
    <trip id="419" depart="419.00" from="FK62FL62" to="LE241LF241"/>
    <trip id="420" depart="420.00" from="DX275DX276" to="HZ293HZ292"/>
    <trip id="421" depart="421.00" from="HM66HN66" to="JV196JU196"/>
    <trip id="422" depart="422.00" from="JV241JW241" to="JX268JX269"/>
    <trip id="423" depart="423.00" from="EK117EJ117" to="DR124DR123"/>
    <trip id="424" depart="424.00" from="IH236IH237" to="IT287IS287"/>
    <trip id="425" depart="425.00" from="KB242KB243" to="AL0AM0"/>
    <trip id="426" depart="426.00" from="AU2AV2" to="HH176HI176"/>