<?xml version="1.0" encoding="UTF-8"?>

<!-- generated on 2023-10-27 11:48:25.275336 by osmWebWizard.py UNKNOWN
<configuration>
    <allow-fringe.min-length value="1000.0"/>
    <begin value="0"/>
    <end value="3600"/>
    <fringe-factor value="20"/>
    <fringe-start-attributes value="departSpeed=&quot;max&quot;"/>
    <insertion-density value="30.0"/>
    <lanes value="True"/>
    <min-distance.fringe value="10.0"/>
    <min-distance value="300.0"/>
    <net-file value="C:\Users\alexc\Desktop\Universita\PhD\SUMOWorkspace\Prove\2023-10-27-11-48-14\osm.net.xml.gz"/>
    <random-depart value="True"/>
    <remove-loops value="True"/>
    <route-file value="C:\Users\alexc\Desktop\Universita\PhD\SUMOWorkspace\Prove\2023-10-27-11-48-14\osm.passenger.rou.xml"/>
    <trip-attributes value="departLane=&quot;best&quot;"/>
    <output-trip-file value="C:\Users\alexc\Desktop\Universita\PhD\SUMOWorkspace\Prove\2023-10-27-11-48-14\osm.passenger.trips.xml"/>
    <prefix value="veh"/>
    <validate value="True"/>
    <vehicle-class value="passenger"/>
</configuration>
-->

<!-- generated on 2023-10-27 11:48:24 by Eclipse SUMO duarouter Version 1.16.0
<configuration xmlns:xsi="http://www.w3.org/2001/XMLSchema-instance" xsi:noNamespaceSchemaLocation="http://sumo.dlr.de/xsd/duarouterConfiguration.xsd">

    <input>
        <net-file value="C:\Users\alexc\Desktop\Universita\PhD\SUMOWorkspace\Prove\2023-10-27-11-48-14\osm.net.xml.gz"/>
        <route-files value="C:\Users\alexc\Desktop\Universita\PhD\SUMOWorkspace\Prove\2023-10-27-11-48-14\osm.passenger.trips.xml"/>
    </input>

    <output>
        <output-file value="C:\Users\alexc\Desktop\Universita\PhD\SUMOWorkspace\Prove\2023-10-27-11-48-14\osm.passenger.trips.xml.tmp"/>
        <alternatives-output value="NUL"/>
        <write-trips value="true"/>
    </output>

    <processing>
        <with-taz value="true"/>
        <remove-loops value="true"/>
    </processing>

    <time>
        <begin value="0"/>
        <end value="3600"/>
    </time>

    <report>
        <no-warnings value="true"/>
        <ignore-errors value="true"/>
        <no-step-log value="true"/>
    </report>

</configuration>
-->

<routes xmlns:xsi="http://www.w3.org/2001/XMLSchema-instance" xsi:noNamespaceSchemaLocation="http://sumo.dlr.de/xsd/routes_file.xsd">
    <vType id="veh_passenger" vClass="passenger"/>
    <trip id="veh0" type="veh_passenger" depart="1.16" departLane="best" departSpeed="max" from="1116253904#0" to="32241968#3"/>
    <trip id="veh1" type="veh_passenger" depart="2.81" departLane="best" departSpeed="max" from="139762405#0" to="-347650517#1"/>
    <trip id="veh2" type="veh_passenger" depart="4.29" departLane="best" departSpeed="max" from="-150052400#8" to="325886647#0"/>
    <trip id="veh3" type="veh_passenger" depart="6.60" departLane="best" from="23410928#1" to="32566100#2"/>
    <trip id="veh4" type="veh_passenger" depart="10.27" departLane="best" departSpeed="max" from="139834065#0" to="-912952876"/>
    <trip id="veh5" type="veh_passenger" depart="11.68" departLane="best" departSpeed="max" from="-23296256#3" to="34348845#0"/>
    <trip id="veh6" type="veh_passenger" depart="14.23" departLane="best" from="23288787#0" to="23218857#0"/>
    <trip id="veh7" type="veh_passenger" depart="14.79" departLane="best" departSpeed="max" from="455333853" to="-454647345#2"/>
    <trip id="veh8" type="veh_passenger" depart="15.30" departLane="best" from="93783755#1" to="192451675#0"/>
    <trip id="veh9" type="veh_passenger" depart="21.70" departLane="best" departSpeed="max" from="912952876" to="648493809#4"/>
    <trip id="veh10" type="veh_passenger" depart="26.24" departLane="best" departSpeed="max" from="912952876" to="450836861#0"/>
    <trip id="veh11" type="veh_passenger" depart="27.48" departLane="best" from="455333851" to="-690870242#1"/>
    <trip id="veh12" type="veh_passenger" depart="29.44" departLane="best" departSpeed="max" from="912952876" to="150052414#0"/>
    <trip id="veh14" type="veh_passenger" depart="32.01" departLane="best" departSpeed="max" from="-32566100#10" to="23621960#0"/>
    <trip id="veh15" type="veh_passenger" depart="33.02" departLane="best" from="23296296#0" to="-49403726#1"/>
    <trip id="veh16" type="veh_passenger" depart="33.83" departLane="best" departSpeed="max" from="393171683" to="422655701"/>
    <trip id="veh17" type="veh_passenger" depart="36.45" departLane="best" from="-23621943#7" to="34395278#0"/>
    <trip id="veh19" type="veh_passenger" depart="38.02" departLane="best" from="149955205#8" to="-1116253904#0"/>
    <trip id="veh20" type="veh_passenger" depart="38.04" departLane="best" from="969701318#1" to="35016111#0"/>
    <trip id="veh21" type="veh_passenger" depart="39.90" departLane="best" departSpeed="max" from="690870242#0" to="648493809#4"/>
    <trip id="veh22" type="veh_passenger" depart="41.96" departLane="best" departSpeed="max" from="347650517#0" to="30887698"/>
    <trip id="veh23" type="veh_passenger" depart="43.88" departLane="best" departSpeed="max" from="-1098811210" to="-1116253904#0"/>
    <trip id="veh24" type="veh_passenger" depart="46.78" departLane="best" from="675587136#0" to="1186037303#3"/>
    <trip id="veh25" type="veh_passenger" depart="46.98" departLane="best" departSpeed="max" from="49403726#0" to="150052400#0"/>
    <trip id="veh26" type="veh_passenger" depart="48.21" departLane="best" departSpeed="max" from="-23218669#1" to="26996169"/>
    <trip id="veh27" type="veh_passenger" depart="49.24" departLane="best" departSpeed="max" from="-680206698" to="-23332076"/>
    <trip id="veh28" type="veh_passenger" depart="50.04" departLane="best" departSpeed="max" from="-150052400#8" to="814748929"/>
    <trip id="veh29" type="veh_passenger" depart="51.14" departLane="best" departSpeed="max" from="135982533" to="30635861#6"/>
    <trip id="veh30" type="veh_passenger" depart="56.42" departLane="best" from="23275345#10" to="23288787#0"/>
    <trip id="veh32" type="veh_passenger" depart="57.05" departLane="best" from="34395273" to="-53238683"/>
    <trip id="veh33" type="veh_passenger" depart="57.80" departLane="best" from="41277856#0" to="455333836"/>
    <trip id="veh35" type="veh_passenger" depart="60.78" departLane="best" departSpeed="max" from="912952876" to="1131234803#0"/>
    <trip id="veh36" type="veh_passenger" depart="64.56" departLane="best" from="-1122691761#1" to="27235474#0"/>
    <trip id="veh37" type="veh_passenger" depart="66.41" departLane="best" from="-23296296#2" to="34395273"/>
    <trip id="veh38" type="veh_passenger" depart="68.28" departLane="best" from="41877885#0" to="455333836"/>
    <trip id="veh39" type="veh_passenger" depart="68.59" departLane="best" departSpeed="max" from="259721591#0" to="404289146#2"/>
    <trip id="veh40" type="veh_passenger" depart="70.54" departLane="best" from="24148139#0" to="32242007#0"/>
    <trip id="veh41" type="veh_passenger" depart="70.63" departLane="best" departSpeed="max" from="-150052400#8" to="-32241579"/>
    <trip id="veh42" type="veh_passenger" depart="76.36" departLane="best" departSpeed="max" from="452137908" to="-23291200"/>
    <trip id="veh43" type="veh_passenger" depart="77.55" departLane="best" from="-23296296#4" to="119742504#2"/>
    <trip id="veh44" type="veh_passenger" depart="77.66" departLane="best" from="32210009#0" to="1131234799"/>
    <trip id="veh45" type="veh_passenger" depart="79.19" departLane="best" departSpeed="max" from="30889026" to="-1116253904#0"/>
    <trip id="veh47" type="veh_passenger" depart="79.37" departLane="best" from="23271834#2" to="32566100#2"/>
    <trip id="veh48" type="veh_passenger" depart="81.67" departLane="best" from="32064540#0" to="23271826"/>
    <trip id="veh49" type="veh_passenger" depart="82.92" departLane="best" from="53238687" to="299421427#3"/>
    <trip id="veh50" type="veh_passenger" depart="83.91" departLane="best" departSpeed="max" from="237333156#0" to="135982476#1"/>
    <trip id="veh51" type="veh_passenger" depart="84.73" departLane="best" departSpeed="max" from="393171683" to="260210806#0"/>
    <trip id="veh52" type="veh_passenger" depart="86.12" departLane="best" from="23288872" to="422655701"/>
    <trip id="veh53" type="veh_passenger" depart="87.28" departLane="best" departSpeed="max" from="-82544186#1" to="23218811#0"/>
    <trip id="veh54" type="veh_passenger" depart="93.81" departLane="best" departSpeed="max" from="-30887698" to="32064526#0"/>
    <trip id="veh55" type="veh_passenger" depart="94.38" departLane="best" from="617698016#1" to="34351084"/>
    <trip id="veh56" type="veh_passenger" depart="101.28" departLane="best" from="150052414#0" to="-1192714015#0"/>
    <trip id="veh57" type="veh_passenger" depart="102.66" departLane="best" departSpeed="max" from="-1098811210" to="-299421433#1"/>
    <trip id="veh58" type="veh_passenger" depart="105.84" departLane="best" departSpeed="max" from="-23218669#1" to="32241701"/>
    <trip id="veh59" type="veh_passenger" depart="105.92" departLane="best" from="171933237#1" to="814748929"/>
    <trip id="veh60" type="veh_passenger" depart="106.22" departLane="best" departSpeed="max" from="393171683" to="1186037304#6"/>
    <trip id="veh62" type="veh_passenger" depart="109.32" departLane="best" from="260210806#2" to="23453044#0"/>
    <trip id="veh63" type="veh_passenger" depart="110.33" departLane="best" departSpeed="max" from="904711706#0" to="135982476#1"/>
    <trip id="veh64" type="veh_passenger" depart="111.31" departLane="best" departSpeed="max" from="-150052400#8" to="455333846"/>
    <trip id="veh65" type="veh_passenger" depart="115.77" departLane="best" from="479678072" to="56870101"/>
    <trip id="veh66" type="veh_passenger" depart="115.97" departLane="best" departSpeed="max" from="-82544186#1" to="33831603#0"/>
    <trip id="veh67" type="veh_passenger" depart="117.61" departLane="best" departSpeed="max" from="130072848#0" to="-347650517#1"/>
    <trip id="veh68" type="veh_passenger" depart="118.70" departLane="best" departSpeed="max" from="-1098811210" to="-448787036"/>
    <trip id="veh69" type="veh_passenger" depart="120.25" departLane="best" from="260898977#9" to="171597939#0"/>
    <trip id="veh70" type="veh_passenger" depart="120.40" departLane="best" departSpeed="max" from="53238683" to="814748934"/>
    <trip id="veh71" type="veh_passenger" depart="120.61" departLane="best" departSpeed="max" from="1116253904#0" to="192451675#0"/>
    <trip id="veh72" type="veh_passenger" depart="125.08" departLane="best" departSpeed="max" from="-23296256#3" to="23218753#0"/>
    <trip id="veh73" type="veh_passenger" depart="125.46" departLane="best" from="135982534#0" to="55302016#0"/>
    <trip id="veh74" type="veh_passenger" depart="127.48" departLane="best" departSpeed="max" from="30889026" to="236470544#1"/>
    <trip id="veh75" type="veh_passenger" depart="127.81" departLane="best" departSpeed="max" from="130072848#0" to="-1215961324#1"/>
    <trip id="veh76" type="veh_passenger" depart="127.85" departLane="best" departSpeed="max" from="-30887698" to="-39938243#0"/>
    <trip id="veh77" type="veh_passenger" depart="130.63" departLane="best" from="32566008#0" to="95408281#2"/>
    <trip id="veh78" type="veh_passenger" depart="132.95" departLane="best" departSpeed="max" from="452137908" to="-32241579"/>
    <trip id="veh79" type="veh_passenger" depart="133.25" departLane="best" from="618409502" to="23753385#0"/>
    <trip id="veh80" type="veh_passenger" depart="133.26" departLane="best" departSpeed="max" from="23291200" to="23288888#0"/>
    <trip id="veh81" type="veh_passenger" depart="138.57" departLane="best" departSpeed="max" from="237333156#0" to="422655701"/>
    <trip id="veh82" type="veh_passenger" depart="141.87" departLane="best" departSpeed="max" from="237333156#0" to="61738703"/>
    <trip id="veh83" type="veh_passenger" depart="142.38" departLane="best" departSpeed="max" from="49403726#0" to="344500892#0"/>
    <trip id="veh84" type="veh_passenger" depart="144.02" departLane="best" departSpeed="max" from="53238683" to="23815777#0"/>
    <trip id="veh85" type="veh_passenger" depart="144.90" departLane="best" departSpeed="max" from="171174679#0" to="648493809#4"/>
    <trip id="veh86" type="veh_passenger" depart="147.27" departLane="best" from="135982511#6" to="-23332076"/>
    <trip id="veh87" type="veh_passenger" depart="151.57" departLane="best" departSpeed="max" from="29031047#0" to="-1122691762"/>
    <trip id="veh88" type="veh_passenger" depart="151.71" departLane="best" departSpeed="max" from="455333853" to="30635861#6"/>
    <trip id="veh89" type="veh_passenger" depart="152.15" departLane="best" from="34394414#1" to="344500892#0"/>
    <trip id="veh90" type="veh_passenger" depart="153.24" departLane="best" departSpeed="max" from="-325886647#1" to="815228878#0"/>
    <trip id="veh91" type="veh_passenger" depart="154.48" departLane="best" from="46996340" to="30635861#6"/>
    <trip id="veh92" type="veh_passenger" depart="154.59" departLane="best" departSpeed="max" from="30889026" to="32566100#2"/>
    <trip id="veh93" type="veh_passenger" depart="155.63" departLane="best" from="135982488#0" to="450047110"/>
    <trip id="veh95" type="veh_passenger" depart="156.84" departLane="best" from="450836898#0" to="648493809#4"/>
    <trip id="veh96" type="veh_passenger" depart="158.73" departLane="best" departSpeed="max" from="237333156#0" to="-1122691761#1"/>
    <trip id="veh97" type="veh_passenger" depart="162.97" departLane="best" from="500928317#0" to="288787059#0"/>
    <trip id="veh98" type="veh_passenger" depart="163.67" departLane="best" departSpeed="max" from="139834065#0" to="25983186#0"/>
    <trip id="veh99" type="veh_passenger" depart="163.84" departLane="best" departSpeed="max" from="-30887698" to="370093518"/>
    <trip id="veh100" type="veh_passenger" depart="164.03" departLane="best" departSpeed="max" from="-741610698" to="171597939#0"/>
    <trip id="veh101" type="veh_passenger" depart="164.29" departLane="best" departSpeed="max" from="-398045533" to="288787061#0"/>
    <trip id="veh102" type="veh_passenger" depart="168.97" departLane="best" departSpeed="max" from="23288923#0" to="23218488#0"/>
    <trip id="veh103" type="veh_passenger" depart="170.88" departLane="best" from="-450836861#1" to="-29031047#1"/>
    <trip id="veh104" type="veh_passenger" depart="171.81" departLane="best" from="135982518#0" to="32241701"/>
    <trip id="veh105" type="veh_passenger" depart="172.13" departLane="best" departSpeed="max" from="-172340790#1" to="260210806#3"/>
    <trip id="veh106" type="veh_passenger" depart="173.09" departLane="best" departSpeed="max" from="-741610698" to="95408281#2"/>
    <trip id="veh107" type="veh_passenger" depart="173.80" departLane="best" from="-34394634#2" to="-129116833#1"/>
    <trip id="veh108" type="veh_passenger" depart="174.17" departLane="best" from="1186037332#0" to="-171597938#3"/>
    <trip id="veh109" type="veh_passenger" depart="174.56" departLane="best" departSpeed="max" from="23288923#0" to="53238690#2"/>
    <trip id="veh110" type="veh_passenger" depart="174.58" departLane="best" from="41877884" to="82544186#0"/>
    <trip id="veh111" type="veh_passenger" depart="178.49" departLane="best" departSpeed="max" from="259721591#0" to="648493809#4"/>
    <trip id="veh112" type="veh_passenger" depart="178.54" departLane="best" departSpeed="max" from="23288923#0" to="32942270#0"/>
    <trip id="veh113" type="veh_passenger" depart="179.26" departLane="best" departSpeed="max" from="135982533" to="192451675#0"/>
    <trip id="veh114" type="veh_passenger" depart="180.25" departLane="best" from="450836895#0" to="46996340"/>
    <trip id="veh115" type="veh_passenger" depart="181.04" departLane="best" departSpeed="max" from="452137908" to="171597939#0"/>
    <trip id="veh116" type="veh_passenger" depart="181.11" departLane="best" from="370093519#0" to="32242048"/>
    <trip id="veh117" type="veh_passenger" depart="185.42" departLane="best" departSpeed="max" from="32241579" to="22880356#0"/>
    <trip id="veh118" type="veh_passenger" depart="185.62" departLane="best" departSpeed="max" from="135982533" to="-32210971"/>
    <trip id="veh119" type="veh_passenger" depart="185.92" departLane="best" departSpeed="max" from="29031047#0" to="-1116253895#1"/>
    <trip id="veh120" type="veh_passenger" depart="186.16" departLane="best" departSpeed="max" from="-82544186#1" to="325886647#0"/>
    <trip id="veh121" type="veh_passenger" depart="186.33" departLane="best" departSpeed="max" from="448787036" to="32064526#0"/>
    <trip id="veh122" type="veh_passenger" depart="187.62" departLane="best" departSpeed="max" from="1116253904#0" to="-32241579"/>
    <trip id="veh123" type="veh_passenger" depart="188.56" departLane="best" departSpeed="max" from="53238683" to="24789018#4"/>
    <trip id="veh124" type="veh_passenger" depart="188.83" departLane="best" from="450836875#0" to="35016206#0"/>
    <trip id="veh125" type="veh_passenger" depart="189.38" departLane="best" departSpeed="max" from="129116833#0" to="1217721982"/>
    <trip id="veh126" type="veh_passenger" depart="190.84" departLane="best" departSpeed="max" from="-32241968#3" to="-347650517#1"/>
    <trip id="veh127" type="veh_passenger" depart="192.48" departLane="best" from="454030795#2" to="1131830805#0"/>
    <trip id="veh128" type="veh_passenger" depart="192.68" departLane="best" from="34395064#4" to="-912952876"/>
    <trip id="veh129" type="veh_passenger" depart="195.06" departLane="best" departSpeed="max" from="-814748929" to="386909726#2"/>
    <trip id="veh130" type="veh_passenger" depart="197.77" departLane="best" departSpeed="max" from="-150052400#8" to="325886647#0"/>
    <trip id="veh131" type="veh_passenger" depart="198.25" departLane="best" from="30007822#0" to="-35016111#4"/>
    <trip id="veh132" type="veh_passenger" depart="198.66" departLane="best" departSpeed="max" from="53238683" to="23453078#0"/>
    <trip id="veh133" type="veh_passenger" depart="200.10" departLane="best" departSpeed="max" from="23587376#0" to="27235474#0"/>
    <trip id="veh134" type="veh_passenger" depart="205.52" departLane="best" from="815228878#4" to="-1116253904#0"/>
    <trip id="veh135" type="veh_passenger" depart="205.68" departLane="best" from="336078058#0" to="32210324"/>
    <trip id="veh136" type="veh_passenger" depart="205.99" departLane="best" from="135982488#0" to="32241968#3"/>
    <trip id="veh137" type="veh_passenger" depart="207.11" departLane="best" departSpeed="max" from="-231110041" to="422655701"/>
    <trip id="veh138" type="veh_passenger" depart="207.76" departLane="best" from="617698016#1" to="34351084"/>
    <trip id="veh139" type="veh_passenger" depart="207.81" departLane="best" departSpeed="max" from="-32064526#1" to="456648726#0"/>
    <trip id="veh140" type="veh_passenger" depart="210.13" departLane="best" departSpeed="max" from="-23218669#1" to="32942270#0"/>
    <trip id="veh141" type="veh_passenger" depart="210.15" departLane="best" departSpeed="max" from="49403726#0" to="23271826"/>
    <trip id="veh142" type="veh_passenger" depart="210.51" departLane="best" departSpeed="max" from="-34394632" to="23218753#0"/>
    <trip id="veh143" type="veh_passenger" depart="213.83" departLane="best" departSpeed="max" from="-814748929" to="135982512#1"/>
    <trip id="veh144" type="veh_passenger" depart="214.06" departLane="best" departSpeed="max" from="448787037#0" to="-448787036"/>
    <trip id="veh145" type="veh_passenger" depart="215.72" departLane="best" departSpeed="max" from="23621681#0" to="648493809#0"/>
    <trip id="veh146" type="veh_passenger" depart="219.56" departLane="best" from="23210836#1" to="56870101"/>
    <trip id="veh147" type="veh_passenger" depart="223.75" departLane="best" departSpeed="max" from="23288923#0" to="150076246#0"/>
    <trip id="veh148" type="veh_passenger" depart="224.53" departLane="best" from="33747234#0" to="32210324"/>
    <trip id="veh149" type="veh_passenger" depart="225.50" departLane="best" departSpeed="max" from="-32566100#10" to="1131234803#0"/>
    <trip id="veh150" type="veh_passenger" depart="227.95" departLane="best" departSpeed="max" from="32241579" to="34349826#4"/>
    <trip id="veh152" type="veh_passenger" depart="229.46" departLane="best" departSpeed="max" from="32210191" to="93783755#0"/>
    <trip id="veh153" type="veh_passenger" depart="229.83" departLane="best" departSpeed="max" from="259721591#0" to="34395250"/>
    <trip id="veh154" type="veh_passenger" depart="230.23" departLane="best" departSpeed="max" from="347650517#0" to="32241554#1"/>
    <trip id="veh155" type="veh_passenger" depart="230.50" departLane="best" from="23453078#1" to="77955974"/>
    <trip id="veh156" type="veh_passenger" depart="236.73" departLane="best" departSpeed="max" from="32210191" to="33831603#0"/>
    <trip id="veh157" type="veh_passenger" depart="237.13" departLane="best" departSpeed="max" from="53238683" to="30887698"/>
    <trip id="veh158" type="veh_passenger" depart="237.49" departLane="best" departSpeed="max" from="49403726#0" to="23271826"/>
    <trip id="veh159" type="veh_passenger" depart="239.14" departLane="best" departSpeed="max" from="-1098811210" to="-32241579"/>
    <trip id="veh160" type="veh_passenger" depart="239.45" departLane="best" from="1131234797" to="-23291200"/>
    <trip id="veh162" type="veh_passenger" depart="240.71" departLane="best" departSpeed="max" from="393171683" to="95408281#2"/>
    <trip id="veh163" type="veh_passenger" depart="241.59" departLane="best" departSpeed="max" from="30887717" to="-454647345#2"/>
    <trip id="veh165" type="veh_passenger" depart="242.68" departLane="best" departSpeed="max" from="-32242298#1" to="320455335#0"/>
    <trip id="veh166" type="veh_passenger" depart="243.62" departLane="best" departSpeed="max" from="-82544186#1" to="23296299#0"/>
    <trip id="veh167" type="veh_passenger" depart="245.15" departLane="best" departSpeed="max" from="237333156#0" to="33831603#0"/>
    <trip id="veh169" type="veh_passenger" depart="246.50" departLane="best" from="260898977#9" to="23218669#0"/>
    <trip id="veh170" type="veh_passenger" depart="247.02" departLane="best" from="23189459#1" to="450836892#0"/>
    <trip id="veh171" type="veh_passenger" depart="247.51" departLane="best" from="31826010" to="34351084"/>
    <trip id="veh172" type="veh_passenger" depart="248.53" departLane="best" departSpeed="max" from="-150052400#8" to="23218488#0"/>
    <trip id="veh173" type="veh_passenger" depart="248.91" departLane="best" departSpeed="max" from="129116833#0" to="450836849#0"/>
    <trip id="veh174" type="veh_passenger" depart="249.27" departLane="best" departSpeed="max" from="30889026" to="82544186#0"/>
    <trip id="veh175" type="veh_passenger" depart="249.79" departLane="best" departSpeed="max" from="-150052400#8" to="35016206#0"/>
    <trip id="veh176" type="veh_passenger" depart="249.97" departLane="best" departSpeed="max" from="-32242298#1" to="618409504#0"/>
    <trip id="veh177" type="veh_passenger" depart="252.35" departLane="best" from="455333846" to="23296256#0"/>
    <trip id="veh178" type="veh_passenger" depart="252.37" departLane="best" departSpeed="max" from="32210191" to="23184464#0"/>
    <trip id="veh179" type="veh_passenger" depart="253.13" departLane="best" departSpeed="max" from="23587376#0" to="35016201#0"/>
    <trip id="veh180" type="veh_passenger" depart="255.59" departLane="best" departSpeed="max" from="-32241968#3" to="344500892#0"/>
    <trip id="veh181" type="veh_passenger" depart="256.19" departLane="best" departSpeed="max" from="-32241968#3" to="23296256#0"/>
    <trip id="veh182" type="veh_passenger" depart="258.00" departLane="best" departSpeed="max" from="912952876" to="-24589638#3"/>
    <trip id="veh183" type="veh_passenger" depart="258.16" departLane="best" departSpeed="max" from="-23296256#3" to="-171597938#3"/>
    <trip id="veh184" type="veh_passenger" depart="259.14" departLane="best" departSpeed="max" from="-398045533" to="135982476#1"/>
    <trip id="veh185" type="veh_passenger" depart="259.58" departLane="best" departSpeed="max" from="-30887698" to="56870101"/>
    <trip id="veh187" type="veh_passenger" depart="261.25" departLane="best" from="675587135#1" to="-171597938#3"/>
    <trip id="veh188" type="veh_passenger" depart="261.46" departLane="best" departSpeed="max" from="648493811#0" to="32242048"/>
    <trip id="veh189" type="veh_passenger" depart="261.59" departLane="best" from="386909726#3" to="32566100#2"/>
    <trip id="veh190" type="veh_passenger" depart="262.16" departLane="best" departSpeed="max" from="452137908" to="140279537#0"/>
    <trip id="veh191" type="veh_passenger" depart="263.67" departLane="best" from="404289146#0" to="288787060#3"/>
    <trip id="veh192" type="veh_passenger" depart="264.50" departLane="best" departSpeed="max" from="-171174679#2" to="34394885#0"/>
    <trip id="veh193" type="veh_passenger" depart="265.99" departLane="best" from="23275345#9" to="815228878#2"/>
    <trip id="veh194" type="veh_passenger" depart="267.58" departLane="best" from="23271834#2" to="450047110"/>
    <trip id="veh195" type="veh_passenger" depart="268.44" departLane="best" from="30007818" to="32064526#0"/>
    <trip id="veh196" type="veh_passenger" depart="269.33" departLane="best" from="1186037332#0" to="199915505#0"/>
    <trip id="veh197" type="veh_passenger" depart="269.50" departLane="best" departSpeed="max" from="49403726#0" to="335384211#0"/>
    <trip id="veh198" type="veh_passenger" depart="269.90" departLane="best" departSpeed="max" from="-766208300#8" to="135982512#0"/>
    <trip id="veh199" type="veh_passenger" depart="271.86" departLane="best" departSpeed="max" from="690870242#0" to="32566100#2"/>
    <trip id="veh200" type="veh_passenger" depart="274.60" departLane="best" from="969701318#1" to="32241542"/>
    <trip id="veh201" type="veh_passenger" depart="275.31" departLane="best" from="344500891" to="325886647#0"/>
    <trip id="veh202" type="veh_passenger" depart="276.09" departLane="best" departSpeed="max" from="-23296256#3" to="199915505#0"/>
    <trip id="veh203" type="veh_passenger" depart="276.96" departLane="best" departSpeed="max" from="-34351084" to="325886647#0"/>
    <trip id="veh204" type="veh_passenger" depart="277.19" departLane="best" from="618968822#0" to="119625528"/>
    <trip id="veh205" type="veh_passenger" depart="278.41" departLane="best" departSpeed="max" from="-119742504#3" to="479678098"/>
    <trip id="veh206" type="veh_passenger" depart="278.59" departLane="best" from="1131234797" to="450836889#0"/>
    <trip id="veh207" type="veh_passenger" depart="280.42" departLane="best" from="1178617196#3" to="23288915#0"/>
    <trip id="veh208" type="veh_passenger" depart="280.56" departLane="best" from="-1098811210" to="-135982498#1"/>
    <trip id="veh209" type="veh_passenger" depart="280.92" departLane="best" from="23218857#0" to="404289146#2"/>
    <trip id="veh210" type="veh_passenger" depart="282.46" departLane="best" from="815228878#0" to="296932687#1"/>
    <trip id="veh211" type="veh_passenger" depart="283.66" departLane="best" departSpeed="max" from="171174679#0" to="135982518#0"/>
    <trip id="veh212" type="veh_passenger" depart="284.24" departLane="best" from="288575512#0" to="171174679#2"/>
    <trip id="veh213" type="veh_passenger" depart="284.42" departLane="best" departSpeed="max" from="-171597939#4" to="-32210971"/>
    <trip id="veh214" type="veh_passenger" depart="285.12" departLane="best" from="296932687#1" to="32566156#0"/>
    <trip id="veh215" type="veh_passenger" depart="290.29" departLane="best" departSpeed="max" from="-32566100#10" to="325886647#0"/>
    <trip id="veh216" type="veh_passenger" depart="290.37" departLane="best" departSpeed="max" from="-32566100#10" to="34348845#0"/>
    <trip id="veh217" type="veh_passenger" depart="291.74" departLane="best" departSpeed="max" from="452137908" to="135982516#0"/>
    <trip id="veh218" type="veh_passenger" depart="292.01" departLane="best" from="451474301#0" to="618968821#2"/>
    <trip id="veh219" type="veh_passenger" depart="292.27" departLane="best" from="34349826#4" to="23288823"/>
    <trip id="veh220" type="veh_passenger" depart="295.94" departLane="best" departSpeed="max" from="30889026" to="-129116833#1"/>
    <trip id="veh221" type="veh_passenger" depart="297.23" departLane="best" departSpeed="max" from="32241579" to="-171597938#3"/>
    <trip id="veh222" type="veh_passenger" depart="297.62" departLane="best" departSpeed="max" from="-171174679#2" to="-690870242#1"/>
    <trip id="veh223" type="veh_passenger" depart="298.52" departLane="best" departSpeed="max" from="-34394632" to="23602918#0"/>
    <trip id="veh224" type="veh_passenger" depart="298.95" departLane="best" from="450836871#0" to="648493809#4"/>
    <trip id="veh225" type="veh_passenger" depart="298.99" departLane="best" from="1217721982" to="23296262"/>
    <trip id="veh226" type="veh_passenger" depart="300.85" departLane="best" from="1192714015#1" to="171174679#2"/>
    <trip id="veh227" type="veh_passenger" depart="301.25" departLane="best" from="11480374#4" to="-347650517#1"/>
    <trip id="veh230" type="veh_passenger" depart="302.39" departLane="best" from="-150052400#3" to="56870101"/>
    <trip id="veh231" type="veh_passenger" depart="302.60" departLane="best" departSpeed="max" from="-82544186#1" to="26996137"/>
    <trip id="veh232" type="veh_passenger" depart="303.65" departLane="best" from="-450836895#1" to="34348845#0"/>
    <trip id="veh233" type="veh_passenger" depart="303.71" departLane="best" from="23621943#4" to="135982476#1"/>