<?xml version="1.0" encoding="UTF-8"?>

<!-- generated on 2023-09-18 23:08:42 by Eclipse SUMO netedit Version 1.18.0
<configuration xmlns:xsi="http://www.w3.org/2001/XMLSchema-instance" xsi:noNamespaceSchemaLocation="http://sumo.dlr.de/xsd/neteditConfiguration.xsd">

    <input>
        <sumo-net-file value="/home/fillo/Documents/tesim/Parallel-Sumo/assets/simpleNet.net.xml"/>
    </input>

    <output>
        <output-file value="/home/fillo/Documents/tesim/Parallel-Sumo/assets/simpleNet.net.xml"/>
    </output>

    <processing>
        <offset.disable-normalization value="true"/>
    </processing>

    <junctions>
        <no-turnarounds value="true"/>
    </junctions>

    <netedit>
        <new-network value="false"/>
    </netedit>

</configuration>
-->

<net version="1.16" junctionCornerDetail="5" limitTurnSpeed="5.50" xmlns:xsi="http://www.w3.org/2001/XMLSchema-instance" xsi:noNamespaceSchemaLocation="http://sumo.dlr.de/xsd/net_file.xsd">

    <location netOffset="0.00,0.00" convBoundary="-45.51,-23.13,219.60,63.46" origBoundary="10000000000.00,10000000000.00,-10000000000.00,-10000000000.00" projParameter="!"/>

    <edge id=":J1_0" function="internal">
        <lane id=":J1_0_0" index="0" speed="6.35" length="4.78" shape="26.37,29.34 25.37,30.06 24.30,30.49 23.15,30.62 21.93,30.45"/>
    </edge>
    <edge id=":J1_1" function="internal">
        <lane id=":J1_1_0" index="0" speed="4.05" length="1.59" shape="22.73,27.35 23.14,27.40 23.52,27.36 23.87,27.22 24.21,26.98"/>
    </edge>
    <edge id=":J2_0" function="internal">
        <lane id=":J2_0_0" index="0" speed="3.90" length="2.93" shape="81.94,-19.04 81.40,-19.66 80.82,-19.93 80.18,-19.83 79.50,-19.36"/>
    </edge>
    <edge id=":J2_1" function="internal">
        <lane id=":J2_1_0" index="0" speed="6.08" length="8.79" shape="77.34,-21.72 79.38,-23.11 81.28,-23.42 83.03,-22.63 84.64,-20.75"/>
    </edge>
    <edge id=":J3_0" function="internal">
        <lane id=":J3_0_0" index="0" speed="6.13" length="10.21" shape="140.15,60.52 138.10,62.69 136.09,63.37 134.12,62.57 132.19,60.30"/>
    </edge>
    <edge id=":J3_1" function="internal">
        <lane id=":J3_1_0" index="0" speed="3.93" length="3.40" shape="134.89,58.59 135.53,59.35 136.19,59.61 136.86,59.38 137.54,58.66"/>
    </edge>
    <edge id=":J4_0" function="internal">
        <lane id=":J4_0_0" index="0" speed="3.91" length="2.53" shape="182.14,4.41 181.52,4.11 180.95,4.07 180.42,4.31 179.95,4.81"/>
    </edge>
    <edge id=":J4_1" function="internal">
        <lane id=":J4_1_0" index="0" speed="6.08" length="7.60" shape="177.34,2.95 178.77,1.44 180.35,0.75 182.07,0.85 183.94,1.76"/>
    </edge>

    <edge id="-E0" from="J1" to="J0" priority="-1">
        <lane id="-E0_0" index="0" speed="13.89" length="70.04" shape="21.93,30.45 -45.91,13.01"/>
    </edge>
    <edge id="-E1" from="J2" to="J1" priority="-1">
        <lane id="-E1_0" index="0" speed="13.89" length="72.07" shape="79.50,-19.36 26.37,29.34"/>
    </edge>
    <edge id="-E2" from="J3" to="J2" priority="-1">
        <lane id="-E2_0" index="0" speed="13.89" length="93.92" shape="132.19,60.30 81.94,-19.04"/>
    </edge>
    <edge id="-E3" from="J4" to="J3" priority="-1">
        <lane id="-E3_0" index="0" speed="13.89" length="68.47" shape="179.95,4.81 140.15,60.52"/>
    </edge>
    <edge id="-E4" from="J5" to="J4" priority="-1">
        <lane id="-E4_0" index="0" speed="13.89" length="44.15" shape="218.70,29.17 182.14,4.41"/>
    </edge>
    <edge id="E0" from="J0" to="J1" priority="-1">
        <lane id="E0_0" index="0" speed="13.89" length="70.04" shape="-45.11,9.91 22.73,27.35"/>
    </edge>
    <edge id="E1" from="J1" to="J2" priority="-1">
        <lane id="E1_0" index="0" speed="13.89" length="72.07" shape="24.21,26.98 77.34,-21.72"/>
    </edge>
    <edge id="E2" from="J2" to="J3" priority="-1">
        <lane id="E2_0" index="0" speed="13.89" length="93.92" shape="84.64,-20.75 134.89,58.59"/>
    </edge>
    <edge id="E3" from="J3" to="J4" priority="-1">
        <lane id="E3_0" index="0" speed="13.89" length="68.47" shape="137.54,58.66 177.34,2.95"/>
    </edge>
    <edge id="E4" from="J4" to="J5" priority="-1">
        <lane id="E4_0" index="0" speed="13.89" length="44.15" shape="183.94,1.76 220.50,26.52"/>
    </edge>

    <junction id="J0" type="dead_end" x="-45.51" y="11.46" incLanes="-E0_0" intLanes="" shape="-45.51,11.46 -46.31,14.56 -45.51,11.46"/>
    <junction id="J1" type="priority" x="24.01" y="29.33" incLanes="-E1_0 E0_0" intLanes=":J1_0_0 :J1_1_0" shape="27.45,30.51 23.13,25.80 21.53,32.00 23.68,32.21 24.69,32.06 25.66,31.72 26.58,31.21">
        <request index="0" response="00" foes="00" cont="0"/>
        <request index="1" response="00" foes="00" cont="0"/>
    </junction>
    <junction id="J2" type="priority" x="81.24" y="-23.13" incLanes="-E2_0 E1_0" intLanes=":J2_0_0 :J2_1_0" shape="80.58,-18.18 85.99,-21.61 84.58,-23.44 83.09,-24.62 81.51,-25.16 79.85,-25.05 78.10,-24.30 76.26,-22.90">
        <request index="0" response="00" foes="00" cont="0"/>
        <request index="1" response="00" foes="00" cont="0"/>
    </junction>
    <junction id="J3" type="priority" x="136.08" y="63.46" incLanes="-E3_0 E2_0" intLanes=":J3_0_0 :J3_1_0" shape="141.45,61.45 136.24,57.73 130.84,61.16 132.54,63.40 134.28,64.76 136.03,65.25 137.81,64.86 139.62,63.59">
        <request index="0" response="00" foes="00" cont="0"/>
        <request index="1" response="00" foes="00" cont="0"/>
    </junction>
    <junction id="J4" type="priority" x="180.46" y="1.34" incLanes="-E4_0 E3_0" intLanes=":J4_0_0 :J4_1_0" shape="181.25,5.74 184.84,0.44 181.56,-0.94 180.05,-0.92 178.63,-0.42 177.29,0.56 176.04,2.02">
        <request index="0" response="00" foes="00" cont="0"/>
        <request index="1" response="00" foes="00" cont="0"/>
    </junction>
    <junction id="J5" type="dead_end" x="219.60" y="27.85" incLanes="E4_0" intLanes="" shape="219.60,27.85 221.39,25.20 219.60,27.85"/>

    <connection from="-E1" to="-E0" fromLane="0" toLane="0" via=":J1_0_0" dir="l" state="M"/>
    <connection from="-E2" to="-E1" fromLane="0" toLane="0" via=":J2_0_0" dir="r" state="M"/>
    <connection from="-E3" to="-E2" fromLane="0" toLane="0" via=":J3_0_0" dir="l" state="M"/>
    <connection from="-E4" to="-E3" fromLane="0" toLane="0" via=":J4_0_0" dir="r" state="M"/>
    <connection from="E0" to="E1" fromLane="0" toLane="0" via=":J1_1_0" dir="r" state="M"/>
    <connection from="E1" to="E2" fromLane="0" toLane="0" via=":J2_1_0" dir="l" state="M"/>
    <connection from="E2" to="E3" fromLane="0" toLane="0" via=":J3_1_0" dir="r" state="M"/>
    <connection from="E3" to="E4" fromLane="0" toLane="0" via=":J4_1_0" dir="l" state="M"/>

    <connection from=":J1_0" to="-E0" fromLane="0" toLane="0" dir="l" state="M"/>
    <connection from=":J1_1" to="E1" fromLane="0" toLane="0" dir="r" state="M"/>
    <connection from=":J2_0" to="-E1" fromLane="0" toLane="0" dir="r" state="M"/>
    <connection from=":J2_1" to="E2" fromLane="0" toLane="0" dir="l" state="M"/>
    <connection from=":J3_0" to="-E2" fromLane="0" toLane="0" dir="l" state="M"/>
    <connection from=":J3_1" to="E3" fromLane="0" toLane="0" dir="r" state="M"/>
    <connection from=":J4_0" to="-E3" fromLane="0" toLane="0" dir="r" state="M"/>
    <connection from=":J4_1" to="E4" fromLane="0" toLane="0" dir="l" state="M"/>

</net>
