<?xml version="1.0" encoding="UTF-8"?>

<!-- generated on 2023-10-09 15:47:03 by Eclipse SUMO netgenerate Version 1.18.0
<configuration xmlns:xsi="http://www.w3.org/2001/XMLSchema-instance" xsi:noNamespaceSchemaLocation="http://sumo.dlr.de/xsd/netgenerateConfiguration.xsd">

    <spider_network>
        <spider value="true"/>
        <spider.circle-number value="40"/>
        <spider.omit-center value="true"/>
    </spider_network>

    <output>
        <output-file value="./assets\spider1.net.xml"/>
    </output>

</configuration>
-->

<net version="1.16" junctionCornerDetail="5" limitTurnSpeed="5.50" xmlns:xsi="http://www.w3.org/2001/XMLSchema-instance" xsi:noNamespaceSchemaLocation="http://sumo.dlr.de/xsd/net_file.xsd">

    <location netOffset="3603.88,3899.71" convBoundary="0.00,0.00,7603.88,7799.42" origBoundary="-3603.88,-3899.71,4000.00,3899.71" projParameter="!"/>

    <edge id=":AB1_0" function="internal">
        <lane id=":AB1_0_0" index="0" speed="6.69" length="6.31" shape="3708.40,3901.31 3706.76,3901.51 3705.38,3902.10 3704.24,3903.09 3703.35,3904.48"/>
    </edge>
    <edge id=":AB1_1" function="internal">
        <lane id=":AB1_1_0" index="0" speed="8.23" length="9.92" shape="3708.40,3901.31 3705.83,3901.00 3703.65,3900.07 3701.87,3898.51 3700.47,3896.33"/>
    </edge>
    <edge id=":AB1_2" function="internal">
        <lane id=":AB1_2_0" index="0" speed="3.65" length="4.67" shape="3708.40,3901.31 3707.20,3900.51 3706.80,3899.71 3707.20,3898.91 3708.40,3898.11"/>
    </edge>
    <edge id=":AB1_3" function="internal">
        <lane id=":AB1_3_0" index="0" speed="6.69" length="6.31" shape="3703.35,3894.94 3704.24,3896.33 3705.38,3897.32 3706.76,3897.91 3708.40,3898.11"/>
    </edge>
    <edge id=":AB1_4" function="internal">
        <lane id=":AB1_4_0" index="0" speed="9.48" length="9.88" shape="3703.35,3894.94 3704.22,3897.33 3704.50,3899.71 3704.22,3902.10 3703.35,3904.48"/>
    </edge>
    <edge id=":AB1_5" function="internal">
        <lane id=":AB1_5_0" index="0" speed="3.65" length="1.44" shape="3703.35,3894.94 3703.15,3896.37"/>
    </edge>
    <edge id=":AB1_9" function="internal">
        <lane id=":AB1_9_0" index="0" speed="3.65" length="3.23" shape="3703.15,3896.37 3702.61,3897.08 3701.71,3897.06 3700.47,3896.33"/>
    </edge>
    <edge id=":AB1_6" function="internal">
        <lane id=":AB1_6_0" index="0" speed="8.06" length="7.00" shape="3700.47,3903.09 3701.08,3901.40 3701.29,3899.71 3701.08,3898.02 3700.47,3896.33"/>
    </edge>
    <edge id=":AB1_7" function="internal">
        <lane id=":AB1_7_0" index="0" speed="8.23" length="2.59" shape="3700.47,3903.09 3701.87,3900.91"/>
    </edge>
    <edge id=":AB1_8" function="internal">
        <lane id=":AB1_8_0" index="0" speed="3.65" length="1.33" shape="3700.47,3903.09 3701.62,3902.41"/>
    </edge>
    <edge id=":AB1_10" function="internal">
        <lane id=":AB1_10_0" index="0" speed="8.23" length="7.33" shape="3701.87,3900.91 3703.65,3899.36 3705.83,3898.42 3708.40,3898.11"/>
    </edge>
    <edge id=":AB1_11" function="internal">
        <lane id=":AB1_11_0" index="0" speed="3.65" length="3.34" shape="3701.62,3902.41 3701.71,3902.36 3702.61,3902.35 3703.15,3903.05 3703.35,3904.48"/>
    </edge>
    <edge id=":AB2_0" function="internal">
        <lane id=":AB2_0_0" index="0" speed="6.69" length="6.31" shape="3667.79,3982.43 3666.62,3981.27 3665.29,3980.56 3663.81,3980.29 3662.17,3980.46"/>
    </edge>
    <edge id=":AB2_1" function="internal">
        <lane id=":AB2_1_0" index="0" speed="8.23" length="9.92" shape="3667.79,3982.43 3666.44,3980.23 3665.81,3977.94 3665.91,3975.57 3666.75,3973.12"/>
    </edge>
    <edge id=":AB2_2" function="internal">
        <lane id=":AB2_2_0" index="0" speed="3.65" length="4.67" shape="3667.79,3982.43 3667.67,3980.99 3668.05,3980.18 3668.92,3979.99 3670.30,3980.43"/>
    </edge>
    <edge id=":AB2_3" function="internal">
        <lane id=":AB2_3_0" index="0" speed="6.69" length="6.31" shape="3669.63,3974.51 3669.10,3976.07 3669.03,3977.58 3669.43,3979.03 3670.30,3980.43"/>
    </edge>
    <edge id=":AB2_4" function="internal">
        <lane id=":AB2_4_0" index="0" speed="9.48" length="9.88" shape="3669.63,3974.51 3668.30,3976.67 3666.62,3978.39 3664.57,3979.65 3662.17,3980.46"/>
    </edge>
    <edge id=":AB2_5" function="internal">
        <lane id=":AB2_5_0" index="0" speed="3.65" length="1.44" shape="3669.63,3974.51 3668.39,3975.25"/>
    </edge>
    <edge id=":AB2_9" function="internal">
        <lane id=":AB2_9_0" index="0" speed="3.65" length="3.23" shape="3668.39,3975.25 3667.49,3975.26 3666.95,3974.55 3666.75,3973.12"/>
    </edge>
    <edge id=":AB2_6" function="internal">
        <lane id=":AB2_6_0" index="0" speed="8.06" length="7.00" shape="3661.46,3977.34 3663.16,3976.76 3664.61,3975.87 3665.80,3974.66 3666.75,3973.12"/>
    </edge>
    <edge id=":AB2_7" function="internal">
        <lane id=":AB2_7_0" index="0" speed="8.23" length="2.59" shape="3661.46,3977.34 3664.03,3977.07"/>
    </edge>
    <edge id=":AB2_8" function="internal">
        <lane id=":AB2_8_0" index="0" speed="3.65" length="1.33" shape="3661.46,3977.34 3662.71,3977.82"/>
    </edge>
    <edge id=":AB2_10" function="internal">
        <lane id=":AB2_10_0" index="0" speed="8.23" length="7.33" shape="3664.03,3977.07 3666.36,3977.50 3668.45,3978.62 3670.30,3980.43"/>
    </edge>
    <edge id=":AB2_11" function="internal">
        <lane id=":AB2_11_0" index="0" speed="3.65" length="3.34" shape="3662.71,3977.82 3662.81,3977.85 3663.37,3978.55 3663.16,3979.41 3662.17,3980.46"/>
    </edge>
    <edge id=":AB3_0" function="internal">
        <lane id=":AB3_0_0" index="0" speed="6.69" length="6.31" shape="3586.39,3997.76 3584.84,3998.31 3583.62,3999.20 3582.73,4000.42 3582.18,4001.97"/>
    </edge>
    <edge id=":AB3_1" function="internal">
        <lane id=":AB3_1_0" index="0" speed="9.48" length="9.88" shape="3586.39,3997.76 3583.87,3998.07 3581.48,3997.82 3579.22,3997.01 3577.09,3995.63"/>
    </edge>
    <edge id=":AB3_2" function="internal">
        <lane id=":AB3_2_0" index="0" speed="3.65" length="1.44" shape="3586.39,3997.76 3585.04,3997.24"/>
    </edge>
    <edge id=":AB3_9" function="internal">
        <lane id=":AB3_9_0" index="0" speed="3.65" length="3.23" shape="3585.04,3997.24 3584.47,3996.55 3584.69,3995.68 3585.68,3994.64"/>
    </edge>
    <edge id=":AB3_3" function="internal">
        <lane id=":AB3_3_0" index="0" speed="8.06" length="7.00" shape="3579.08,3993.13 3580.60,3994.10 3582.20,3994.68 3583.89,3994.86 3585.68,3994.64"/>
    </edge>
    <edge id=":AB3_4" function="internal">
        <lane id=":AB3_4_0" index="0" speed="8.23" length="2.59" shape="3579.08,3993.13 3580.90,3994.98"/>
    </edge>
    <edge id=":AB3_5" function="internal">
        <lane id=":AB3_5_0" index="0" speed="3.65" length="1.33" shape="3579.08,3993.13 3579.49,3994.40"/>
    </edge>
    <edge id=":AB3_10" function="internal">
        <lane id=":AB3_10_0" index="0" speed="8.23" length="7.33" shape="3580.90,3994.98 3582.02,3997.07 3582.44,3999.40 3582.18,4001.97"/>
    </edge>
    <edge id=":AB3_11" function="internal">
        <lane id=":AB3_11_0" index="0" speed="3.65" length="3.34" shape="3579.49,3994.40 3579.52,3994.51 3579.34,3995.38 3578.53,3995.76 3577.09,3995.63"/>
    </edge>
    <edge id=":AB3_6" function="internal">
        <lane id=":AB3_6_0" index="0" speed="6.69" length="6.31" shape="3579.06,4001.26 3579.23,3999.62 3578.96,3998.14 3578.24,3996.81 3577.09,3995.63"/>
    </edge>
    <edge id=":AB3_7" function="internal">
        <lane id=":AB3_7_0" index="0" speed="8.23" length="9.92" shape="3579.06,4001.26 3579.93,3998.82 3581.33,3996.91 3583.24,3995.51 3585.68,3994.64"/>
    </edge>
    <edge id=":AB3_8" function="internal">
        <lane id=":AB3_8_0" index="0" speed="3.65" length="4.67" shape="3579.06,4001.26 3580.10,4000.27 3580.97,4000.06 3581.66,4000.62 3582.18,4001.97"/>
    </edge>
    <edge id=":AB4_0" function="internal">
        <lane id=":AB4_0_0" index="0" speed="6.69" length="6.31" shape="3516.32,3947.17 3514.92,3946.31 3513.46,3945.91 3511.96,3945.97 3510.40,3946.50"/>
    </edge>
    <edge id=":AB4_1" function="internal">
        <lane id=":AB4_1_0" index="0" speed="9.48" length="9.88" shape="3516.32,3947.17 3514.51,3945.40 3513.21,3943.37 3512.44,3941.10 3512.18,3938.58"/>
    </edge>
    <edge id=":AB4_2" function="internal">
        <lane id=":AB4_2_0" index="0" speed="3.65" length="1.44" shape="3516.32,3947.17 3515.88,3945.80"/>
    </edge>
    <edge id=":AB4_9" function="internal">
        <lane id=":AB4_9_0" index="0" speed="3.65" length="3.23" shape="3515.88,3945.80 3516.06,3944.92 3516.88,3944.55 3518.31,3944.67"/>
    </edge>
    <edge id=":AB4_3" function="internal">
        <lane id=":AB4_3_0" index="0" speed="8.06" length="7.00" shape="3515.38,3938.58 3515.56,3940.36 3516.11,3941.98 3517.03,3943.41 3518.31,3944.67"/>
    </edge>
    <edge id=":AB4_4" function="internal">
        <lane id=":AB4_4_0" index="0" speed="8.23" length="2.59" shape="3515.38,3938.58 3515.07,3941.15"/>
    </edge>
    <edge id=":AB4_5" function="internal">
        <lane id=":AB4_5_0" index="0" speed="3.65" length="1.33" shape="3515.38,3938.58 3514.64,3939.69"/>
    </edge>
    <edge id=":AB4_10" function="internal">
        <lane id=":AB4_10_0" index="0" speed="8.23" length="7.33" shape="3515.07,3941.15 3514.13,3943.32 3512.58,3945.11 3510.40,3946.50"/>
    </edge>
    <edge id=":AB4_11" function="internal">
        <lane id=":AB4_11_0" index="0" speed="3.65" length="3.34" shape="3514.64,3939.69 3514.58,3939.78 3513.78,3940.18 3512.98,3939.78 3512.18,3938.58"/>
    </edge>
    <edge id=":AB4_6" function="internal">
        <lane id=":AB4_6_0" index="0" speed="6.69" length="6.31" shape="3509.01,3943.62 3510.40,3942.73 3511.39,3941.60 3511.98,3940.21 3512.18,3938.58"/>
    </edge>
    <edge id=":AB4_7" function="internal">
        <lane id=":AB4_7_0" index="0" speed="8.23" length="9.92" shape="3509.01,3943.62 3511.46,3942.79 3513.83,3942.68 3516.11,3943.31 3518.31,3944.67"/>
    </edge>
    <edge id=":AB4_8" function="internal">
        <lane id=":AB4_8_0" index="0" speed="3.65" length="4.67" shape="3509.01,3943.62 3510.44,3943.82 3511.14,3944.37 3511.13,3945.26 3510.40,3946.50"/>
    </edge>
    <edge id=":AB5_0" function="internal">
        <lane id=":AB5_0_0" index="0" speed="6.69" length="6.31" shape="3512.18,3860.85 3511.98,3859.21 3511.39,3857.83 3510.40,3856.69 3509.01,3855.80"/>
    </edge>
    <edge id=":AB5_1" function="internal">
        <lane id=":AB5_1_0" index="0" speed="9.48" length="9.88" shape="3512.18,3860.85 3512.44,3858.32 3513.21,3856.05 3514.51,3854.03 3516.32,3852.25"/>
    </edge>
    <edge id=":AB5_2" function="internal">
        <lane id=":AB5_2_0" index="0" speed="3.65" length="1.44" shape="3512.18,3860.85 3512.98,3859.65"/>
    </edge>
    <edge id=":AB5_9" function="internal">
        <lane id=":AB5_9_0" index="0" speed="3.65" length="3.23" shape="3512.98,3859.65 3513.78,3859.25 3514.58,3859.65 3515.38,3860.85"/>
    </edge>
    <edge id=":AB5_3" function="internal">
        <lane id=":AB5_3_0" index="0" speed="8.06" length="7.00" shape="3518.31,3854.75 3517.03,3856.01 3516.11,3857.45 3515.56,3859.06 3515.38,3860.85"/>
    </edge>
    <edge id=":AB5_4" function="internal">
        <lane id=":AB5_4_0" index="0" speed="8.23" length="2.59" shape="3518.31,3854.75 3516.11,3856.11"/>
    </edge>
    <edge id=":AB5_5" function="internal">
        <lane id=":AB5_5_0" index="0" speed="3.65" length="1.33" shape="3518.31,3854.75 3516.98,3854.87"/>
    </edge>
    <edge id=":AB5_10" function="internal">
        <lane id=":AB5_10_0" index="0" speed="8.23" length="7.33" shape="3516.11,3856.11 3513.83,3856.74 3511.46,3856.64 3509.01,3855.80"/>
    </edge>
    <edge id=":AB5_11" function="internal">
        <lane id=":AB5_11_0" index="0" speed="3.65" length="3.34" shape="3516.98,3854.87 3516.88,3854.88 3516.06,3854.50 3515.88,3853.63 3516.32,3852.25"/>
    </edge>
    <edge id=":AB5_6" function="internal">
        <lane id=":AB5_6_0" index="0" speed="6.69" length="6.31" shape="3510.40,3852.92 3511.96,3853.45 3513.46,3853.52 3514.92,3853.12 3516.32,3852.25"/>
    </edge>
    <edge id=":AB5_7" function="internal">
        <lane id=":AB5_7_0" index="0" speed="8.23" length="9.92" shape="3510.40,3852.92 3512.58,3854.31 3514.13,3856.10 3515.07,3858.28 3515.38,3860.85"/>
    </edge>
    <edge id=":AB5_8" function="internal">
        <lane id=":AB5_8_0" index="0" speed="3.65" length="4.67" shape="3510.40,3852.92 3511.13,3854.16 3511.14,3855.05 3510.44,3855.60 3509.01,3855.80"/>
    </edge>
    <edge id=":AB6_0" function="internal">
        <lane id=":AB6_0_0" index="0" speed="8.06" length="7.00" shape="3585.68,3804.79 3583.89,3804.57 3582.20,3804.74 3580.60,3805.32 3579.08,3806.29"/>
    </edge>
    <edge id=":AB6_1" function="internal">
        <lane id=":AB6_1_0" index="0" speed="8.23" length="2.59" shape="3585.68,3804.79 3583.24,3803.91"/>
    </edge>
    <edge id=":AB6_2" function="internal">
        <lane id=":AB6_2_0" index="0" speed="3.65" length="1.33" shape="3585.68,3804.79 3584.76,3803.82"/>
    </edge>
    <edge id=":AB6_9" function="internal">
        <lane id=":AB6_9_0" index="0" speed="8.23" length="7.33" shape="3583.24,3803.91 3581.33,3802.51 3579.93,3800.60 3579.06,3798.16"/>
    </edge>
    <edge id=":AB6_10" function="internal">
        <lane id=":AB6_10_0" index="0" speed="3.65" length="3.34" shape="3584.76,3803.82 3584.69,3803.74 3584.47,3802.87 3585.04,3802.18 3586.39,3801.67"/>
    </edge>
    <edge id=":AB6_3" function="internal">
        <lane id=":AB6_3_0" index="0" speed="6.69" length="6.31" shape="3582.18,3797.45 3582.73,3799.00 3583.62,3800.22 3584.84,3801.11 3586.39,3801.67"/>
    </edge>
    <edge id=":AB6_4" function="internal">
        <lane id=":AB6_4_0" index="0" speed="8.23" length="9.92" shape="3582.18,3797.45 3582.44,3800.03 3582.02,3802.36 3580.90,3804.45 3579.08,3806.29"/>
    </edge>
    <edge id=":AB6_5" function="internal">
        <lane id=":AB6_5_0" index="0" speed="3.65" length="4.67" shape="3582.18,3797.45 3581.66,3798.80 3580.97,3799.37 3580.10,3799.16 3579.06,3798.16"/>
    </edge>
    <edge id=":AB6_6" function="internal">
        <lane id=":AB6_6_0" index="0" speed="6.69" length="6.31" shape="3577.09,3803.79 3578.24,3802.61 3578.96,3801.29 3579.23,3799.80 3579.06,3798.16"/>
    </edge>
    <edge id=":AB6_7" function="internal">
        <lane id=":AB6_7_0" index="0" speed="9.48" length="9.88" shape="3577.09,3803.79 3579.22,3802.42 3581.48,3801.61 3583.87,3801.36 3586.39,3801.67"/>
    </edge>
    <edge id=":AB6_8" function="internal">
        <lane id=":AB6_8_0" index="0" speed="3.65" length="1.44" shape="3577.09,3803.79 3578.53,3803.67"/>
    </edge>
    <edge id=":AB6_11" function="internal">
        <lane id=":AB6_11_0" index="0" speed="3.65" length="3.23" shape="3578.53,3803.67 3579.34,3804.04 3579.52,3804.92 3579.08,3806.29"/>
    </edge>
    <edge id=":AB7_0" function="internal">
        <lane id=":AB7_0_0" index="0" speed="8.06" length="7.00" shape="3666.75,3826.30 3665.80,3824.77 3664.61,3823.55 3663.16,3822.66 3661.46,3822.08"/>
    </edge>
    <edge id=":AB7_1" function="internal">
        <lane id=":AB7_1_0" index="0" speed="8.23" length="2.59" shape="3666.75,3826.30 3665.91,3823.85"/>
    </edge>
    <edge id=":AB7_2" function="internal">
        <lane id=":AB7_2_0" index="0" speed="3.65" length="1.33" shape="3666.75,3826.30 3666.93,3824.98"/>
    </edge>
    <edge id=":AB7_9" function="internal">
        <lane id=":AB7_9_0" index="0" speed="8.23" length="7.33" shape="3665.91,3823.85 3665.81,3821.48 3666.44,3819.20 3667.79,3816.99"/>
    </edge>
    <edge id=":AB7_10" function="internal">
        <lane id=":AB7_10_0" index="0" speed="3.65" length="3.34" shape="3666.93,3824.98 3666.95,3824.87 3667.49,3824.16 3668.39,3824.18 3669.63,3824.91"/>
    </edge>
    <edge id=":AB7_3" function="internal">
        <lane id=":AB7_3_0" index="0" speed="6.69" length="6.31" shape="3670.30,3818.99 3669.43,3820.39 3669.03,3821.84 3669.10,3823.35 3669.63,3824.91"/>
    </edge>
    <edge id=":AB7_4" function="internal">
        <lane id=":AB7_4_0" index="0" speed="8.23" length="9.92" shape="3670.30,3818.99 3668.45,3820.80 3666.36,3821.92 3664.03,3822.35 3661.46,3822.08"/>
    </edge>
    <edge id=":AB7_5" function="internal">
        <lane id=":AB7_5_0" index="0" speed="3.65" length="4.67" shape="3670.30,3818.99 3668.92,3819.43 3668.05,3819.24 3667.67,3818.43 3667.79,3816.99"/>
    </edge>
    <edge id=":AB7_6" function="internal">
        <lane id=":AB7_6_0" index="0" speed="6.69" length="6.31" shape="3662.17,3818.96 3663.81,3819.13 3665.29,3818.86 3666.62,3818.15 3667.79,3816.99"/>
    </edge>
    <edge id=":AB7_7" function="internal">
        <lane id=":AB7_7_0" index="0" speed="9.48" length="9.88" shape="3662.17,3818.96 3664.57,3819.78 3666.62,3821.04 3668.30,3822.75 3669.63,3824.91"/>
    </edge>
    <edge id=":AB7_8" function="internal">
        <lane id=":AB7_8_0" index="0" speed="3.65" length="1.44" shape="3662.17,3818.96 3663.16,3820.01"/>
    </edge>
    <edge id=":AB7_11" function="internal">
        <lane id=":AB7_11_0" index="0" speed="3.65" length="3.23" shape="3663.16,3820.01 3663.37,3820.88 3662.81,3821.57 3661.46,3822.08"/>
    </edge>
    <edge id=":AC1_0" function="internal">
        <lane id=":AC1_0_0" index="0" speed="8.94" length="11.80" shape="3809.89,3901.31 3807.48,3901.77 3805.25,3903.13 3803.22,3905.41 3801.37,3908.60"/>
    </edge>
    <edge id=":AC1_1" function="internal">
        <lane id=":AC1_1_0" index="0" speed="13.89" length="15.10" shape="3809.89,3901.31 3794.78,3901.31"/>
    </edge>
    <edge id=":AC1_2" function="internal">
        <lane id=":AC1_2_0" index="0" speed="10.14" length="3.58" shape="3809.89,3901.31 3806.54,3900.74 3806.38,3900.65"/>
    </edge>
    <edge id=":AC1_3" function="internal">
        <lane id=":AC1_3_0" index="0" speed="3.65" length="1.44" shape="3809.89,3901.31 3808.69,3900.51"/>
    </edge>
    <edge id=":AC1_16" function="internal">
        <lane id=":AC1_16_0" index="0" speed="10.14" length="11.81" shape="3806.38,3900.65 3803.53,3899.04 3800.84,3896.19 3798.49,3892.21"/>
    </edge>
    <edge id=":AC1_17" function="internal">
        <lane id=":AC1_17_0" index="0" speed="3.65" length="3.23" shape="3808.69,3900.51 3808.29,3899.71 3808.69,3898.91 3809.89,3898.11"/>
    </edge>
    <edge id=":AC1_4" function="internal">
        <lane id=":AC1_4_0" index="0" speed="8.94" length="11.80" shape="3801.37,3890.83 3803.22,3894.01 3805.25,3896.29 3807.48,3897.66 3809.89,3898.11"/>
    </edge>
    <edge id=":AC1_5" function="internal">
        <lane id=":AC1_5_0" index="0" speed="12.79" length="18.40" shape="3801.37,3890.83 3802.98,3895.27 3803.51,3899.71 3802.98,3904.15 3801.37,3908.60"/>
    </edge>
    <edge id=":AC1_6" function="internal">
        <lane id=":AC1_6_0" index="0" speed="7.44" length="16.31" shape="3801.37,3890.83 3802.85,3895.41 3802.25,3898.69 3799.56,3900.66 3794.78,3901.31"/>
    </edge>
    <edge id=":AC1_7" function="internal">
        <lane id=":AC1_7_0" index="0" speed="3.65" length="4.67" shape="3801.37,3890.83 3801.17,3892.25 3800.62,3892.96 3799.73,3892.95 3798.49,3892.21"/>
    </edge>
    <edge id=":AC1_8" function="internal">
        <lane id=":AC1_8_0" index="0" speed="5.75" length="9.17" shape="3794.78,3898.11 3797.47,3897.74 3798.98,3896.64 3799.32,3894.79 3798.49,3892.21"/>
    </edge>
    <edge id=":AC1_9" function="internal">
        <lane id=":AC1_9_0" index="0" speed="13.89" length="15.10" shape="3794.78,3898.11 3809.89,3898.11"/>
    </edge>
    <edge id=":AC1_10" function="internal">
        <lane id=":AC1_10_0" index="0" speed="7.44" length="4.82" shape="3794.78,3898.11 3799.56,3898.77"/>
    </edge>
    <edge id=":AC1_11" function="internal">
        <lane id=":AC1_11_0" index="0" speed="3.65" length="1.44" shape="3794.78,3898.11 3795.98,3898.91"/>
    </edge>
    <edge id=":AC1_18" function="internal">
        <lane id=":AC1_18_0" index="0" speed="7.44" length="11.49" shape="3799.56,3898.77 3802.25,3900.73 3802.85,3904.01 3801.37,3908.60"/>
    </edge>
    <edge id=":AC1_19" function="internal">
        <lane id=":AC1_19_0" index="0" speed="3.65" length="3.23" shape="3795.98,3898.91 3796.38,3899.71 3795.98,3900.51 3794.78,3901.31"/>
    </edge>
    <edge id=":AC1_12" function="internal">
        <lane id=":AC1_12_0" index="0" speed="5.75" length="9.17" shape="3798.49,3907.21 3799.32,3904.63 3798.98,3902.79 3797.47,3901.68 3794.78,3901.31"/>
    </edge>
    <edge id=":AC1_13" function="internal">
        <lane id=":AC1_13_0" index="0" speed="11.78" length="15.52" shape="3798.49,3907.21 3799.84,3903.46 3800.29,3899.71 3799.84,3895.96 3798.49,3892.21"/>
    </edge>
    <edge id=":AC1_14" function="internal">
        <lane id=":AC1_14_0" index="0" speed="10.14" length="15.39" shape="3798.49,3907.21 3800.84,3903.23 3803.53,3900.39 3806.54,3898.68 3809.89,3898.11"/>
    </edge>
    <edge id=":AC1_15" function="internal">
        <lane id=":AC1_15_0" index="0" speed="3.65" length="4.67" shape="3798.49,3907.21 3799.73,3906.48 3800.62,3906.46 3801.17,3907.17 3801.37,3908.60"/>
    </edge>
    <edge id=":AC2_0" function="internal">
        <lane id=":AC2_0_0" index="0" speed="8.94" length="11.80" shape="3731.07,4061.77 3729.21,4060.18 3726.76,4059.29 3723.71,4059.12 3720.06,4059.66"/>
    </edge>
    <edge id=":AC2_1" function="internal">
        <lane id=":AC2_1_0" index="0" speed="13.89" length="15.10" shape="3731.07,4061.77 3721.65,4049.97"/>
    </edge>
    <edge id=":AC2_2" function="internal">
        <lane id=":AC2_2_0" index="0" speed="10.14" length="3.58" shape="3731.07,4061.77 3729.43,4058.81 3729.40,4058.62"/>
    </edge>
    <edge id=":AC2_3" function="internal">
        <lane id=":AC2_3_0" index="0" speed="3.65" length="1.44" shape="3731.07,4061.77 3730.95,4060.34"/>
    </edge>
    <edge id=":AC2_16" function="internal">
        <lane id=":AC2_16_0" index="0" speed="10.14" length="11.81" shape="3729.40,4058.62 3728.88,4055.39 3729.43,4051.51 3731.08,4047.19"/>
    </edge>
    <edge id=":AC2_17" function="internal">
        <lane id=":AC2_17_0" index="0" speed="3.65" length="3.23" shape="3730.95,4060.34 3731.32,4059.53 3732.20,4059.34 3733.57,4059.78"/>
    </edge>
    <edge id=":AC2_4" function="internal">
        <lane id=":AC2_4_0" index="0" speed="8.94" length="11.80" shape="3733.96,4048.58 3732.62,4052.01 3732.11,4055.02 3732.43,4057.61 3733.57,4059.78"/>
    </edge>
    <edge id=":AC2_5" function="internal">
        <lane id=":AC2_5_0" index="0" speed="12.79" length="18.40" shape="3733.96,4048.58 3731.49,4052.60 3728.35,4055.79 3724.54,4058.15 3720.06,4059.66"/>
    </edge>
    <edge id=":AC2_6" function="internal">
        <lane id=":AC2_6_0" index="0" speed="7.44" length="16.31" shape="3733.96,4048.58 3731.30,4052.60 3728.36,4054.17 3725.14,4053.29 3721.65,4049.97"/>
    </edge>
    <edge id=":AC2_7" function="internal">
        <lane id=":AC2_7_0" index="0" speed="3.65" length="4.67" shape="3733.96,4048.58 3732.72,4049.31 3731.82,4049.33 3731.28,4048.62 3731.08,4047.19"/>
    </edge>
    <edge id=":AC2_8" function="internal">
        <lane id=":AC2_8_0" index="0" speed="5.75" length="9.17" shape="3724.16,4047.97 3726.12,4049.84 3727.93,4050.34 3729.58,4049.45 3731.08,4047.19"/>
    </edge>
    <edge id=":AC2_9" function="internal">
        <lane id=":AC2_9_0" index="0" speed="13.89" length="15.10" shape="3724.16,4047.97 3733.57,4059.78"/>
    </edge>
    <edge id=":AC2_10" function="internal">
        <lane id=":AC2_10_0" index="0" speed="7.44" length="4.82" shape="3724.16,4047.97 3726.62,4052.11"/>
    </edge>
    <edge id=":AC2_11" function="internal">
        <lane id=":AC2_11_0" index="0" speed="3.65" length="1.44" shape="3724.16,4047.97 3724.28,4049.41"/>
    </edge>
    <edge id=":AC2_18" function="internal">
        <lane id=":AC2_18_0" index="0" speed="7.44" length="11.49" shape="3726.62,4052.11 3726.76,4055.44 3724.58,4057.96 3720.06,4059.66"/>
    </edge>
    <edge id=":AC2_19" function="internal">
        <lane id=":AC2_19_0" index="0" speed="3.65" length="3.23" shape="3724.28,4049.41 3723.90,4050.22 3723.03,4050.41 3721.65,4049.97"/>
    </edge>
    <edge id=":AC2_12" function="internal">
        <lane id=":AC2_12_0" index="0" speed="5.75" length="9.17" shape="3719.35,4056.54 3721.89,4055.58 3723.12,4054.17 3723.04,4052.30 3721.65,4049.97"/>
    </edge>
    <edge id=":AC2_13" function="internal">
        <lane id=":AC2_13_0" index="0" speed="11.78" length="15.52" shape="3719.35,4056.54 3723.13,4055.26 3726.34,4053.28 3728.99,4050.59 3731.08,4047.19"/>
    </edge>
    <edge id=":AC2_14" function="internal">
        <lane id=":AC2_14_0" index="0" speed="10.14" length="15.39" shape="3719.35,4056.54 3723.93,4055.90 3727.83,4056.23 3731.04,4057.52 3733.57,4059.78"/>
    </edge>
    <edge id=":AC2_15" function="internal">
        <lane id=":AC2_15_0" index="0" speed="3.65" length="4.67" shape="3719.35,4056.54 3720.70,4057.05 3721.27,4057.75 3721.06,4058.61 3720.06,4059.66"/>
    </edge>
    <edge id=":AC3_0" function="internal">
        <lane id=":AC3_0_0" index="0" speed="8.94" length="11.80" shape="3568.59,4094.23 3565.07,4095.33 3562.40,4096.80 3560.57,4098.67 3559.59,4100.91"/>
    </edge>
    <edge id=":AC3_1" function="internal">
        <lane id=":AC3_1_0" index="0" speed="12.79" length="18.40" shape="3568.59,4094.23 3563.90,4094.81 3559.45,4094.34 3555.24,4092.83 3551.26,4090.28"/>
    </edge>
    <edge id=":AC3_2" function="internal">
        <lane id=":AC3_2_0" index="0" speed="7.44" length="16.31" shape="3568.59,4094.23 3563.79,4094.66 3560.73,4093.34 3559.41,4090.28 3559.83,4085.48"/>
    </edge>
    <edge id=":AC3_3" function="internal">
        <lane id=":AC3_3_0" index="0" speed="3.65" length="4.67" shape="3568.59,4094.23 3567.24,4093.72 3566.68,4093.03 3566.89,4092.16 3567.88,4091.11"/>
    </edge>
    <edge id=":AC3_4" function="internal">
        <lane id=":AC3_4_0" index="0" speed="5.75" length="9.17" shape="3562.95,4086.19 3562.72,4088.89 3563.46,4090.61 3565.18,4091.35 3567.88,4091.11"/>
    </edge>
    <edge id=":AC3_5" function="internal">
        <lane id=":AC3_5_0" index="0" speed="13.89" length="15.10" shape="3562.95,4086.19 3559.59,4100.91"/>
    </edge>
    <edge id=":AC3_6" function="internal">
        <lane id=":AC3_6_0" index="0" speed="7.44" length="4.82" shape="3562.95,4086.19 3561.25,4090.70"/>
    </edge>
    <edge id=":AC3_7" function="internal">
        <lane id=":AC3_7_0" index="0" speed="3.65" length="1.44" shape="3562.95,4086.19 3561.91,4087.18"/>
    </edge>
    <edge id=":AC3_16" function="internal">
        <lane id=":AC3_16_0" index="0" speed="7.44" length="11.49" shape="3561.25,4090.70 3558.74,4092.88 3555.41,4092.74 3551.26,4090.28"/>
    </edge>
    <edge id=":AC3_17" function="internal">
        <lane id=":AC3_17_0" index="0" speed="3.65" length="3.23" shape="3561.91,4087.18 3561.04,4087.39 3560.35,4086.82 3559.83,4085.48"/>
    </edge>
    <edge id=":AC3_8" function="internal">
        <lane id=":AC3_8_0" index="0" speed="5.75" length="9.17" shape="3553.26,4087.78 3555.59,4089.16 3557.46,4089.24 3558.88,4088.01 3559.83,4085.48"/>
    </edge>
    <edge id=":AC3_9" function="internal">
        <lane id=":AC3_9_0" index="0" speed="11.78" length="15.52" shape="3553.26,4087.78 3556.61,4089.93 3560.17,4091.21 3563.92,4091.60 3567.88,4091.11"/>
    </edge>
    <edge id=":AC3_10" function="internal">
        <lane id=":AC3_10_0" index="0" speed="10.14" length="15.39" shape="3553.26,4087.78 3556.62,4090.96 3558.79,4094.21 3559.78,4097.53 3559.59,4100.91"/>
    </edge>
    <edge id=":AC3_11" function="internal">
        <lane id=":AC3_11_0" index="0" speed="3.65" length="4.67" shape="3553.26,4087.78 3553.70,4089.15 3553.51,4090.03 3552.70,4090.40 3551.26,4090.28"/>
    </edge>
    <edge id=":AC3_12" function="internal">
        <lane id=":AC3_12_0" index="0" speed="8.94" length="11.80" shape="3556.47,4100.20 3556.57,4097.75 3555.73,4095.28 3553.96,4092.79 3551.26,4090.28"/>
    </edge>
    <edge id=":AC3_13" function="internal">
        <lane id=":AC3_13_0" index="0" speed="13.89" length="15.10" shape="3556.47,4100.20 3559.83,4085.48"/>
    </edge>
    <edge id=":AC3_14" function="internal">
        <lane id=":AC3_14_0" index="0" speed="10.14" length="3.58" shape="3556.47,4100.20 3557.77,4097.07 3557.90,4096.93"/>
    </edge>
    <edge id=":AC3_15" function="internal">
        <lane id=":AC3_15_0" index="0" speed="3.65" length="1.44" shape="3556.47,4100.20 3557.52,4099.21"/>
    </edge>
    <edge id=":AC3_18" function="internal">
        <lane id=":AC3_18_0" index="0" speed="10.14" length="11.81" shape="3557.90,4096.93 3560.11,4094.51 3563.48,4092.52 3567.88,4091.11"/>
    </edge>
    <edge id=":AC3_19" function="internal">
        <lane id=":AC3_19_0" index="0" speed="3.65" length="3.23" shape="3557.52,4099.21 3558.39,4099.00 3559.08,4099.57 3559.59,4100.91"/>
    </edge>
    <edge id=":AC4_0" function="internal">
        <lane id=":AC4_0_0" index="0" speed="8.94" length="11.80" shape="3429.79,3993.41 3426.74,3991.34 3423.92,3990.17 3421.33,3989.90 3418.96,3990.54"/>
    </edge>
    <edge id=":AC4_1" function="internal">
        <lane id=":AC4_1_0" index="0" speed="12.79" length="18.40" shape="3429.79,3993.41 3426.42,3990.10 3424.01,3986.33 3422.56,3982.10 3422.08,3977.40"/>
    </edge>
    <edge id=":AC4_2" function="internal">
        <lane id=":AC4_2_0" index="0" speed="7.44" length="16.31" shape="3429.79,3993.41 3426.47,3989.92 3425.59,3986.70 3427.16,3983.76 3431.18,3981.10"/>
    </edge>
    <edge id=":AC4_3" function="internal">
        <lane id=":AC4_3_0" index="0" speed="3.65" length="4.67" shape="3429.79,3993.41 3429.35,3992.03 3429.54,3991.16 3430.35,3990.78 3431.79,3990.91"/>
    </edge>
    <edge id=":AC4_4" function="internal">