<?xml version="1.0" encoding="UTF-8"?>

<!-- generated on 2023-10-09 01:28:45 by Eclipse SUMO netgenerate Version 1.18.0
<configuration xmlns:xsi="http://www.w3.org/2001/XMLSchema-instance" xsi:noNamespaceSchemaLocation="http://sumo.dlr.de/xsd/netgenerateConfiguration.xsd">

    <spider_network>
        <spider value="true"/>
        <spider.circle-number value="3"/>
        <spider.omit-center value="true"/>
    </spider_network>

    <output>
        <output-file value="./assets\spider0.net.xml"/>
    </output>

</configuration>
-->

<net version="1.16" junctionCornerDetail="5" limitTurnSpeed="5.50" xmlns:xsi="http://www.w3.org/2001/XMLSchema-instance" xsi:noNamespaceSchemaLocation="http://sumo.dlr.de/xsd/net_file.xsd">

    <location netOffset="270.29,292.48" convBoundary="0.00,0.00,570.29,584.96" origBoundary="-270.29,-292.48,300.00,292.48" projParameter="!"/>

    <edge id=":B1_0" function="internal">
        <lane id=":B1_0_0" index="0" speed="6.69" length="6.31" shape="374.81,294.08 373.18,294.28 371.79,294.87 370.66,295.86 369.77,297.25"/>
    </edge>
    <edge id=":B1_1" function="internal">
        <lane id=":B1_1_0" index="0" speed="8.23" length="9.92" shape="374.81,294.08 372.25,293.77 370.07,292.83 368.28,291.28 366.89,289.10"/>
    </edge>
    <edge id=":B1_2" function="internal">
        <lane id=":B1_2_0" index="0" speed="3.65" length="4.67" shape="374.81,294.08 373.61,293.28 373.21,292.48 373.61,291.68 374.81,290.88"/>
    </edge>
    <edge id=":B1_3" function="internal">
        <lane id=":B1_3_0" index="0" speed="6.69" length="6.31" shape="369.77,287.71 370.66,289.10 371.79,290.09 373.18,290.68 374.81,290.88"/>
    </edge>
    <edge id=":B1_4" function="internal">
        <lane id=":B1_4_0" index="0" speed="9.48" length="9.88" shape="369.77,287.71 370.63,290.09 370.92,292.48 370.63,294.86 369.77,297.25"/>
    </edge>
    <edge id=":B1_5" function="internal">
        <lane id=":B1_5_0" index="0" speed="3.65" length="1.44" shape="369.77,287.71 369.57,289.14"/>
    </edge>
    <edge id=":B1_9" function="internal">
        <lane id=":B1_9_0" index="0" speed="3.65" length="3.23" shape="369.57,289.14 369.02,289.84 368.13,289.83 366.89,289.10"/>
    </edge>
    <edge id=":B1_6" function="internal">
        <lane id=":B1_6_0" index="0" speed="8.06" length="7.00" shape="366.89,295.86 367.50,294.17 367.70,292.48 367.50,290.79 366.89,289.10"/>
    </edge>
    <edge id=":B1_7" function="internal">
        <lane id=":B1_7_0" index="0" speed="8.23" length="2.59" shape="366.89,295.86 368.28,293.68"/>
    </edge>
    <edge id=":B1_8" function="internal">
        <lane id=":B1_8_0" index="0" speed="3.65" length="1.33" shape="366.89,295.86 368.04,295.18"/>
    </edge>
    <edge id=":B1_10" function="internal">
        <lane id=":B1_10_0" index="0" speed="8.23" length="7.33" shape="368.28,293.68 370.07,292.12 372.25,291.19 374.81,290.88"/>
    </edge>
    <edge id=":B1_11" function="internal">
        <lane id=":B1_11_0" index="0" speed="3.65" length="3.34" shape="368.04,295.18 368.13,295.13 369.02,295.11 369.57,295.82 369.77,297.25"/>
    </edge>
    <edge id=":B2_0" function="internal">
        <lane id=":B2_0_0" index="0" speed="6.69" length="6.31" shape="334.21,375.20 333.04,374.04 331.71,373.33 330.22,373.06 328.59,373.23"/>
    </edge>
    <edge id=":B2_1" function="internal">
        <lane id=":B2_1_0" index="0" speed="8.23" length="9.92" shape="334.21,375.20 332.85,372.99 332.22,370.71 332.33,368.34 333.16,365.89"/>
    </edge>
    <edge id=":B2_2" function="internal">
        <lane id=":B2_2_0" index="0" speed="3.65" length="4.67" shape="334.21,375.20 334.09,373.76 334.46,372.95 335.34,372.76 336.71,373.20"/>
    </edge>
    <edge id=":B2_3" function="internal">
        <lane id=":B2_3_0" index="0" speed="6.69" length="6.31" shape="336.04,367.28 335.51,368.84 335.45,370.35 335.85,371.80 336.71,373.20"/>
    </edge>
    <edge id=":B2_4" function="internal">
        <lane id=":B2_4_0" index="0" speed="9.48" length="9.88" shape="336.04,367.28 334.72,369.44 333.03,371.15 330.99,372.41 328.59,373.23"/>
    </edge>
    <edge id=":B2_5" function="internal">
        <lane id=":B2_5_0" index="0" speed="3.65" length="1.44" shape="336.04,367.28 334.80,368.01"/>
    </edge>
    <edge id=":B2_9" function="internal">
        <lane id=":B2_9_0" index="0" speed="3.65" length="3.23" shape="334.80,368.01 333.91,368.03 333.36,367.32 333.16,365.89"/>
    </edge>
    <edge id=":B2_6" function="internal">
        <lane id=":B2_6_0" index="0" speed="8.06" length="7.00" shape="327.87,370.11 329.58,369.53 331.02,368.64 332.22,367.42 333.16,365.89"/>
    </edge>
    <edge id=":B2_7" function="internal">
        <lane id=":B2_7_0" index="0" speed="8.23" length="2.59" shape="327.87,370.11 330.45,369.84"/>
    </edge>
    <edge id=":B2_8" function="internal">
        <lane id=":B2_8_0" index="0" speed="3.65" length="1.33" shape="327.87,370.11 329.12,370.58"/>
    </edge>
    <edge id=":B2_10" function="internal">
        <lane id=":B2_10_0" index="0" speed="8.23" length="7.33" shape="330.45,369.84 332.78,370.27 334.87,371.39 336.71,373.20"/>
    </edge>
    <edge id=":B2_11" function="internal">
        <lane id=":B2_11_0" index="0" speed="3.65" length="3.34" shape="329.12,370.58 329.22,370.62 329.79,371.31 329.58,372.18 328.59,373.23"/>
    </edge>
    <edge id=":B3_0" function="internal">
        <lane id=":B3_0_0" index="0" speed="6.69" length="6.31" shape="252.81,390.52 251.26,391.08 250.04,391.97 249.15,393.19 248.59,394.74"/>
    </edge>
    <edge id=":B3_1" function="internal">
        <lane id=":B3_1_0" index="0" speed="9.48" length="9.88" shape="252.81,390.52 250.29,390.83 247.90,390.58 245.64,389.77 243.50,388.40"/>
    </edge>
    <edge id=":B3_2" function="internal">
        <lane id=":B3_2_0" index="0" speed="3.65" length="1.44" shape="252.81,390.52 251.46,390.01"/>
    </edge>
    <edge id=":B3_9" function="internal">
        <lane id=":B3_9_0" index="0" speed="3.65" length="3.23" shape="251.46,390.01 250.89,389.32 251.10,388.45 252.09,387.40"/>
    </edge>
    <edge id=":B3_3" function="internal">
        <lane id=":B3_3_0" index="0" speed="8.06" length="7.00" shape="245.50,385.90 247.01,386.87 248.61,387.45 250.31,387.62 252.09,387.40"/>
    </edge>
    <edge id=":B3_4" function="internal">
        <lane id=":B3_4_0" index="0" speed="8.23" length="2.59" shape="245.50,385.90 247.31,387.74"/>
    </edge>
    <edge id=":B3_5" function="internal">
        <lane id=":B3_5_0" index="0" speed="3.65" length="1.33" shape="245.50,385.90 245.91,387.17"/>
    </edge>
    <edge id=":B3_10" function="internal">
        <lane id=":B3_10_0" index="0" speed="8.23" length="7.33" shape="247.31,387.74 248.43,389.83 248.86,392.16 248.59,394.74"/>
    </edge>
    <edge id=":B3_11" function="internal">
        <lane id=":B3_11_0" index="0" speed="3.65" length="3.34" shape="245.91,387.17 245.94,387.27 245.75,388.15 244.94,388.52 243.50,388.40"/>
    </edge>
    <edge id=":B3_6" function="internal">
        <lane id=":B3_6_0" index="0" speed="6.69" length="6.31" shape="245.47,394.03 245.64,392.39 245.37,390.90 244.66,389.58 243.50,388.40"/>
    </edge>
    <edge id=":B3_7" function="internal">
        <lane id=":B3_7_0" index="0" speed="8.23" length="9.92" shape="245.47,394.03 246.35,391.59 247.74,389.68 249.66,388.28 252.09,387.40"/>
    </edge>
    <edge id=":B3_8" function="internal">
        <lane id=":B3_8_0" index="0" speed="3.65" length="4.67" shape="245.47,394.03 246.52,393.03 247.39,392.82 248.08,393.39 248.59,394.74"/>
    </edge>
    <edge id=":B4_0" function="internal">
        <lane id=":B4_0_0" index="0" speed="6.69" length="6.31" shape="182.73,339.94 181.33,339.07 179.88,338.67 178.37,338.74 176.81,339.27"/>
    </edge>
    <edge id=":B4_1" function="internal">
        <lane id=":B4_1_0" index="0" speed="9.48" length="9.88" shape="182.73,339.94 180.92,338.16 179.63,336.14 178.85,333.87 178.59,331.34"/>
    </edge>
    <edge id=":B4_2" function="internal">
        <lane id=":B4_2_0" index="0" speed="3.65" length="1.44" shape="182.73,339.94 182.29,338.56"/>
    </edge>
    <edge id=":B4_9" function="internal">
        <lane id=":B4_9_0" index="0" speed="3.65" length="3.23" shape="182.29,338.56 182.48,337.69 183.29,337.31 184.73,337.44"/>
    </edge>
    <edge id=":B4_3" function="internal">
        <lane id=":B4_3_0" index="0" speed="8.06" length="7.00" shape="181.79,331.34 181.98,333.13 182.53,334.74 183.44,336.18 184.73,337.44"/>
    </edge>
    <edge id=":B4_4" function="internal">
        <lane id=":B4_4_0" index="0" speed="8.23" length="2.59" shape="181.79,331.34 181.48,333.91"/>
    </edge>
    <edge id=":B4_5" function="internal">
        <lane id=":B4_5_0" index="0" speed="3.65" length="1.33" shape="181.79,331.34 181.05,332.45"/>
    </edge>
    <edge id=":B4_10" function="internal">
        <lane id=":B4_10_0" index="0" speed="8.23" length="7.33" shape="181.48,333.91 180.55,336.09 178.99,337.88 176.81,339.27"/>
    </edge>
    <edge id=":B4_11" function="internal">
        <lane id=":B4_11_0" index="0" speed="3.65" length="3.34" shape="181.05,332.45 180.99,332.54 180.19,332.94 179.39,332.54 178.59,331.34"/>
    </edge>
    <edge id=":B4_6" function="internal">
        <lane id=":B4_6_0" index="0" speed="6.69" length="6.31" shape="175.42,336.39 176.81,335.50 177.80,334.36 178.40,332.98 178.59,331.34"/>
    </edge>
    <edge id=":B4_7" function="internal">
        <lane id=":B4_7_0" index="0" speed="8.23" length="9.92" shape="175.42,336.39 177.87,335.55 180.24,335.45 182.53,336.08 184.73,337.44"/>
    </edge>
    <edge id=":B4_8" function="internal">
        <lane id=":B4_8_0" index="0" speed="3.65" length="4.67" shape="175.42,336.39 176.85,336.59 177.56,337.14 177.55,338.03 176.81,339.27"/>
    </edge>
    <edge id=":B5_0" function="internal">
        <lane id=":B5_0_0" index="0" speed="6.69" length="6.31" shape="178.59,253.61 178.40,251.98 177.80,250.59 176.81,249.46 175.42,248.57"/>
    </edge>
    <edge id=":B5_1" function="internal">
        <lane id=":B5_1_0" index="0" speed="9.48" length="9.88" shape="178.59,253.61 178.85,251.09 179.63,248.82 180.92,246.79 182.73,245.02"/>
    </edge>
    <edge id=":B5_2" function="internal">
        <lane id=":B5_2_0" index="0" speed="3.65" length="1.44" shape="178.59,253.61 179.39,252.41"/>
    </edge>
    <edge id=":B5_9" function="internal">
        <lane id=":B5_9_0" index="0" speed="3.65" length="3.23" shape="179.39,252.41 180.19,252.01 180.99,252.41 181.79,253.61"/>
    </edge>
    <edge id=":B5_3" function="internal">
        <lane id=":B5_3_0" index="0" speed="8.06" length="7.00" shape="184.73,247.52 183.44,248.78 182.53,250.21 181.98,251.83 181.79,253.61"/>
    </edge>
    <edge id=":B5_4" function="internal">
        <lane id=":B5_4_0" index="0" speed="8.23" length="2.59" shape="184.73,247.52 182.53,248.88"/>
    </edge>
    <edge id=":B5_5" function="internal">
        <lane id=":B5_5_0" index="0" speed="3.65" length="1.33" shape="184.73,247.52 183.40,247.63"/>
    </edge>
    <edge id=":B5_10" function="internal">
        <lane id=":B5_10_0" index="0" speed="8.23" length="7.33" shape="182.53,248.88 180.24,249.51 177.87,249.40 175.42,248.57"/>
    </edge>
    <edge id=":B5_11" function="internal">
        <lane id=":B5_11_0" index="0" speed="3.65" length="3.34" shape="183.40,247.63 183.29,247.64 182.48,247.27 182.29,246.39 182.73,245.02"/>
    </edge>
    <edge id=":B5_6" function="internal">
        <lane id=":B5_6_0" index="0" speed="6.69" length="6.31" shape="176.81,245.69 178.37,246.22 179.88,246.28 181.33,245.88 182.73,245.02"/>
    </edge>
    <edge id=":B5_7" function="internal">
        <lane id=":B5_7_0" index="0" speed="8.23" length="9.92" shape="176.81,245.69 178.99,247.08 180.55,248.87 181.48,251.04 181.79,253.61"/>
    </edge>
    <edge id=":B5_8" function="internal">
        <lane id=":B5_8_0" index="0" speed="3.65" length="4.67" shape="176.81,245.69 177.55,246.93 177.56,247.82 176.85,248.37 175.42,248.57"/>
    </edge>
    <edge id=":B6_0" function="internal">
        <lane id=":B6_0_0" index="0" speed="8.06" length="7.00" shape="252.09,197.55 250.31,197.33 248.61,197.51 247.01,198.09 245.50,199.06"/>
    </edge>
    <edge id=":B6_1" function="internal">
        <lane id=":B6_1_0" index="0" speed="8.23" length="2.59" shape="252.09,197.55 249.66,196.68"/>
    </edge>
    <edge id=":B6_2" function="internal">
        <lane id=":B6_2_0" index="0" speed="3.65" length="1.33" shape="252.09,197.55 251.18,196.58"/>
    </edge>
    <edge id=":B6_9" function="internal">
        <lane id=":B6_9_0" index="0" speed="8.23" length="7.33" shape="249.66,196.68 247.74,195.28 246.35,193.37 245.47,190.93"/>
    </edge>
    <edge id=":B6_10" function="internal">
        <lane id=":B6_10_0" index="0" speed="3.65" length="3.34" shape="251.18,196.58 251.10,196.51 250.89,195.64 251.46,194.95 252.81,194.43"/>
    </edge>
    <edge id=":B6_3" function="internal">
        <lane id=":B6_3_0" index="0" speed="6.69" length="6.31" shape="248.59,190.22 249.15,191.77 250.04,192.99 251.26,193.88 252.81,194.43"/>
    </edge>
    <edge id=":B6_4" function="internal">
        <lane id=":B6_4_0" index="0" speed="8.23" length="9.92" shape="248.59,190.22 248.86,192.79 248.43,195.12 247.31,197.21 245.50,199.06"/>
    </edge>
    <edge id=":B6_5" function="internal">
        <lane id=":B6_5_0" index="0" speed="3.65" length="4.67" shape="248.59,190.22 248.08,191.57 247.39,192.13 246.52,191.92 245.47,190.93"/>
    </edge>
    <edge id=":B6_6" function="internal">
        <lane id=":B6_6_0" index="0" speed="6.69" length="6.31" shape="243.50,196.56 244.66,195.38 245.37,194.05 245.64,192.57 245.47,190.93"/>
    </edge>
    <edge id=":B6_7" function="internal">
        <lane id=":B6_7_0" index="0" speed="9.48" length="9.88" shape="243.50,196.56 245.64,195.18 247.90,194.37 250.29,194.12 252.81,194.43"/>
    </edge>
    <edge id=":B6_8" function="internal">
        <lane id=":B6_8_0" index="0" speed="3.65" length="1.44" shape="243.50,196.56 244.94,196.43"/>
    </edge>
    <edge id=":B6_11" function="internal">
        <lane id=":B6_11_0" index="0" speed="3.65" length="3.23" shape="244.94,196.43 245.75,196.81 245.94,197.68 245.50,199.06"/>
    </edge>
    <edge id=":B7_0" function="internal">
        <lane id=":B7_0_0" index="0" speed="8.06" length="7.00" shape="333.16,219.07 332.22,217.53 331.02,216.32 329.58,215.43 327.87,214.85"/>
    </edge>
    <edge id=":B7_1" function="internal">
        <lane id=":B7_1_0" index="0" speed="8.23" length="2.59" shape="333.16,219.07 332.33,216.62"/>
    </edge>
    <edge id=":B7_2" function="internal">
        <lane id=":B7_2_0" index="0" speed="3.65" length="1.33" shape="333.16,219.07 333.35,217.74"/>
    </edge>
    <edge id=":B7_9" function="internal">
        <lane id=":B7_9_0" index="0" speed="8.23" length="7.33" shape="332.33,216.62 332.22,214.25 332.85,211.96 334.21,209.76"/>
    </edge>
    <edge id=":B7_10" function="internal">
        <lane id=":B7_10_0" index="0" speed="3.65" length="3.34" shape="333.35,217.74 333.36,217.64 333.91,216.93 334.80,216.94 336.04,217.68"/>
    </edge>
    <edge id=":B7_3" function="internal">
        <lane id=":B7_3_0" index="0" speed="6.69" length="6.31" shape="336.71,211.76 335.85,213.16 335.45,214.61 335.51,216.12 336.04,217.68"/>
    </edge>
    <edge id=":B7_4" function="internal">
        <lane id=":B7_4_0" index="0" speed="8.23" length="9.92" shape="336.71,211.76 334.87,213.57 332.78,214.69 330.45,215.12 327.87,214.85"/>
    </edge>
    <edge id=":B7_5" function="internal">
        <lane id=":B7_5_0" index="0" speed="3.65" length="4.67" shape="336.71,211.76 335.34,212.20 334.46,212.01 334.09,211.20 334.21,209.76"/>
    </edge>
    <edge id=":B7_6" function="internal">
        <lane id=":B7_6_0" index="0" speed="6.69" length="6.31" shape="328.59,211.73 330.22,211.90 331.71,211.63 333.04,210.92 334.21,209.76"/>
    </edge>
    <edge id=":B7_7" function="internal">
        <lane id=":B7_7_0" index="0" speed="9.48" length="9.88" shape="328.59,211.73 330.99,212.54 333.03,213.80 334.72,215.52 336.04,217.68"/>
    </edge>
    <edge id=":B7_8" function="internal">
        <lane id=":B7_8_0" index="0" speed="3.65" length="1.44" shape="328.59,211.73 329.58,212.78"/>
    </edge>
    <edge id=":B7_11" function="internal">
        <lane id=":B7_11_0" index="0" speed="3.65" length="3.23" shape="329.58,212.78 329.79,213.64 329.22,214.34 327.87,214.85"/>
    </edge>
    <edge id=":C1_0" function="internal">
        <lane id=":C1_0_0" index="0" speed="8.94" length="11.80" shape="476.30,294.08 473.89,294.53 471.67,295.90 469.64,298.18 467.79,301.36"/>
    </edge>
    <edge id=":C1_1" function="internal">
        <lane id=":C1_1_0" index="0" speed="13.89" length="15.10" shape="476.30,294.08 461.20,294.08"/>
    </edge>
    <edge id=":C1_2" function="internal">
        <lane id=":C1_2_0" index="0" speed="10.14" length="3.58" shape="476.30,294.08 472.96,293.51 472.79,293.42"/>
    </edge>
    <edge id=":C1_3" function="internal">
        <lane id=":C1_3_0" index="0" speed="3.65" length="1.44" shape="476.30,294.08 475.10,293.28"/>
    </edge>
    <edge id=":C1_16" function="internal">
        <lane id=":C1_16_0" index="0" speed="10.14" length="11.81" shape="472.79,293.42 469.94,291.80 467.26,288.96 464.90,284.98"/>
    </edge>
    <edge id=":C1_17" function="internal">
        <lane id=":C1_17_0" index="0" speed="3.65" length="3.23" shape="475.10,293.28 474.70,292.48 475.10,291.68 476.30,290.88"/>
    </edge>
    <edge id=":C1_4" function="internal">
        <lane id=":C1_4_0" index="0" speed="8.94" length="11.80" shape="467.79,283.59 469.64,286.78 471.67,289.06 473.89,290.42 476.30,290.88"/>
    </edge>
    <edge id=":C1_5" function="internal">
        <lane id=":C1_5_0" index="0" speed="12.79" length="18.40" shape="467.79,283.59 469.39,288.04 469.93,292.48 469.39,296.92 467.79,301.36"/>
    </edge>
    <edge id=":C1_6" function="internal">
        <lane id=":C1_6_0" index="0" speed="7.44" length="16.31" shape="467.79,283.59 469.27,288.18 468.66,291.46 465.97,293.42 461.20,294.08"/>
    </edge>
    <edge id=":C1_7" function="internal">
        <lane id=":C1_7_0" index="0" speed="3.65" length="4.67" shape="467.79,283.59 467.59,285.02 467.04,285.73 466.15,285.71 464.90,284.98"/>
    </edge>
    <edge id=":C1_8" function="internal">
        <lane id=":C1_8_0" index="0" speed="5.75" length="9.17" shape="461.20,290.88 463.88,290.51 465.40,289.40 465.74,287.56 464.90,284.98"/>
    </edge>
    <edge id=":C1_9" function="internal">
        <lane id=":C1_9_0" index="0" speed="13.89" length="15.10" shape="461.20,290.88 476.30,290.88"/>
    </edge>
    <edge id=":C1_10" function="internal">
        <lane id=":C1_10_0" index="0" speed="7.44" length="4.82" shape="461.20,290.88 465.97,291.53"/>
    </edge>
    <edge id=":C1_11" function="internal">
        <lane id=":C1_11_0" index="0" speed="3.65" length="1.44" shape="461.20,290.88 462.40,291.68"/>
    </edge>
    <edge id=":C1_18" function="internal">
        <lane id=":C1_18_0" index="0" speed="7.44" length="11.49" shape="465.97,291.53 468.66,293.50 469.27,296.78 467.79,301.36"/>
    </edge>
    <edge id=":C1_19" function="internal">
        <lane id=":C1_19_0" index="0" speed="3.65" length="3.23" shape="462.40,291.68 462.80,292.48 462.40,293.28 461.20,294.08"/>
    </edge>
    <edge id=":C1_12" function="internal">
        <lane id=":C1_12_0" index="0" speed="5.75" length="9.17" shape="464.90,299.98 465.74,297.40 465.40,295.55 463.88,294.45 461.20,294.08"/>
    </edge>
    <edge id=":C1_13" function="internal">
        <lane id=":C1_13_0" index="0" speed="11.78" length="15.52" shape="464.90,299.98 466.26,296.23 466.71,292.48 466.26,288.73 464.90,284.98"/>
    </edge>
    <edge id=":C1_14" function="internal">
        <lane id=":C1_14_0" index="0" speed="10.14" length="15.39" shape="464.90,299.98 467.26,296.00 469.94,293.15 472.96,291.45 476.30,290.88"/>
    </edge>
    <edge id=":C1_15" function="internal">
        <lane id=":C1_15_0" index="0" speed="3.65" length="4.67" shape="464.90,299.98 466.15,299.24 467.04,299.23 467.59,299.94 467.79,301.36"/>
    </edge>
    <edge id=":C2_0" function="internal">
        <lane id=":C2_0_0" index="0" speed="8.94" length="11.80" shape="397.49,454.54 395.63,452.94 393.17,452.06 390.12,451.89 386.48,452.43"/>
    </edge>
    <edge id=":C2_1" function="internal">
        <lane id=":C2_1_0" index="0" speed="13.89" length="15.10" shape="397.49,454.54 388.07,442.73"/>
    </edge>
    <edge id=":C2_2" function="internal">
        <lane id=":C2_2_0" index="0" speed="10.14" length="3.58" shape="397.49,454.54 395.85,451.57 395.82,451.39"/>
    </edge>
    <edge id=":C2_3" function="internal">
        <lane id=":C2_3_0" index="0" speed="3.65" length="1.44" shape="397.49,454.54 397.36,453.10"/>
    </edge>
    <edge id=":C2_16" function="internal">
        <lane id=":C2_16_0" index="0" speed="10.14" length="11.81" shape="395.82,451.39 395.30,448.15 395.85,444.28 397.49,439.96"/>
    </edge>
    <edge id=":C2_17" function="internal">
        <lane id=":C2_17_0" index="0" speed="3.65" length="3.23" shape="397.36,453.10 397.74,452.29 398.61,452.11 399.99,452.55"/>
    </edge>
    <edge id=":C2_4" function="internal">
        <lane id=":C2_4_0" index="0" speed="8.94" length="11.80" shape="400.38,441.35 399.04,444.78 398.52,447.79 398.84,450.38 399.99,452.55"/>
    </edge>
    <edge id=":C2_5" function="internal">
        <lane id=":C2_5_0" index="0" speed="12.79" length="18.40" shape="400.38,441.35 397.90,445.37 394.76,448.56 390.95,450.91 386.48,452.43"/>
    </edge>
    <edge id=":C2_6" function="internal">
        <lane id=":C2_6_0" index="0" speed="7.44" length="16.31" shape="400.38,441.35 397.71,445.37 394.77,446.94 391.56,446.06 388.07,442.73"/>
    </edge>
    <edge id=":C2_7" function="internal">
        <lane id=":C2_7_0" index="0" speed="3.65" length="4.67" shape="400.38,441.35 399.13,442.08 398.24,442.09 397.69,441.39 397.49,439.96"/>
    </edge>
    <edge id=":C2_8" function="internal">
        <lane id=":C2_8_0" index="0" speed="5.75" length="9.17" shape="390.57,440.74 392.53,442.61 394.34,443.10 395.99,442.22 397.49,439.96"/>
    </edge>
    <edge id=":C2_9" function="internal">
        <lane id=":C2_9_0" index="0" speed="13.89" length="15.10" shape="390.57,440.74 399.99,452.55"/>
    </edge>
    <edge id=":C2_10" function="internal">
        <lane id=":C2_10_0" index="0" speed="7.44" length="4.82" shape="390.57,440.74 393.04,444.88"/>
    </edge>
    <edge id=":C2_11" function="internal">
        <lane id=":C2_11_0" index="0" speed="3.65" length="1.44" shape="390.57,440.74 390.69,442.18"/>
    </edge>
    <edge id=":C2_18" function="internal">
        <lane id=":C2_18_0" index="0" speed="7.44" length="11.49" shape="393.04,444.88 393.18,448.21 390.99,450.73 386.48,452.43"/>
    </edge>
    <edge id=":C2_19" function="internal">
        <lane id=":C2_19_0" index="0" speed="3.65" length="3.23" shape="390.69,442.18 390.32,442.99 389.44,443.17 388.07,442.73"/>
    </edge>
    <edge id=":C2_12" function="internal">
        <lane id=":C2_12_0" index="0" speed="5.75" length="9.17" shape="385.77,449.31 388.30,448.35 389.53,446.94 389.46,445.06 388.07,442.73"/>
    </edge>
    <edge id=":C2_13" function="internal">
        <lane id=":C2_13_0" index="0" speed="11.78" length="15.52" shape="385.77,449.31 389.54,448.03 392.76,446.04 395.41,443.35 397.49,439.96"/>
    </edge>
    <edge id=":C2_14" function="internal">
        <lane id=":C2_14_0" index="0" speed="10.14" length="15.39" shape="385.77,449.31 390.35,448.67 394.25,448.99 397.46,450.29 399.99,452.55"/>
    </edge>
    <edge id=":C2_15" function="internal">
        <lane id=":C2_15_0" index="0" speed="3.65" length="4.67" shape="385.77,449.31 387.12,449.82 387.68,450.51 387.47,451.38 386.48,452.43"/>
    </edge>
    <edge id=":C3_0" function="internal">
        <lane id=":C3_0_0" index="0" speed="8.94" length="11.80" shape="235.01,487.00 231.49,488.09 228.82,489.57 226.99,491.43 226.01,493.68"/>
    </edge>
    <edge id=":C3_1" function="internal">
        <lane id=":C3_1_0" index="0" speed="12.79" length="18.40" shape="235.01,487.00 230.32,487.58 225.87,487.11 221.65,485.60 217.68,483.05"/>
    </edge>
    <edge id=":C3_2" function="internal">
        <lane id=":C3_2_0" index="0" speed="7.44" length="16.31" shape="235.01,487.00 230.20,487.42 227.14,486.11 225.83,483.05 226.25,478.24"/>
    </edge>
    <edge id=":C3_3" function="internal">
        <lane id=":C3_3_0" index="0" speed="3.65" length="4.67" shape="235.01,487.00 233.66,486.49 233.09,485.80 233.30,484.93 234.30,483.88"/>
    </edge>
    <edge id=":C3_4" function="internal">
        <lane id=":C3_4_0" index="0" speed="5.75" length="9.17" shape="229.37,478.96 229.13,481.66 229.87,483.38 231.59,484.12 234.30,483.88"/>
    </edge>
    <edge id=":C3_5" function="internal">
        <lane id=":C3_5_0" index="0" speed="13.89" length="15.10" shape="229.37,478.96 226.01,493.68"/>
    </edge>
    <edge id=":C3_6" function="internal">
        <lane id=":C3_6_0" index="0" speed="7.44" length="4.82" shape="229.37,478.96 227.67,483.47"/>
    </edge>
    <edge id=":C3_7" function="internal">
        <lane id=":C3_7_0" index="0" speed="3.65" length="1.44" shape="229.37,478.96 228.32,479.95"/>
    </edge>
    <edge id=":C3_16" function="internal">
        <lane id=":C3_16_0" index="0" speed="7.44" length="11.49" shape="227.67,483.47 225.15,485.65 221.82,485.51 217.68,483.05"/>
    </edge>
    <edge id=":C3_17" function="internal">
        <lane id=":C3_17_0" index="0" speed="3.65" length="3.23" shape="228.32,479.95 227.45,480.16 226.76,479.59 226.25,478.24"/>
    </edge>
    <edge id=":C3_8" function="internal">
        <lane id=":C3_8_0" index="0" speed="5.75" length="9.17" shape="219.68,480.54 222.01,481.93 223.88,482.01 225.29,480.78 226.25,478.24"/>
    </edge>
    <edge id=":C3_9" function="internal">
        <lane id=":C3_9_0" index="0" speed="11.78" length="15.52" shape="219.68,480.54 223.03,482.70 226.58,483.97 230.34,484.37 234.30,483.88"/>
    </edge>
    <edge id=":C3_10" function="internal">
        <lane id=":C3_10_0" index="0" speed="10.14" length="15.39" shape="219.68,480.54 223.03,483.73 225.21,486.98 226.20,490.29 226.01,493.68"/>
    </edge>
    <edge id=":C3_11" function="internal">
        <lane id=":C3_11_0" index="0" speed="3.65" length="4.67" shape="219.68,480.54 220.11,481.92 219.93,482.79 219.12,483.17 217.68,483.05"/>
    </edge>
    <edge id=":C3_12" function="internal">
        <lane id=":C3_12_0" index="0" speed="8.94" length="11.80" shape="222.89,492.97 222.98,490.52 222.14,488.05 220.38,485.56 217.68,483.05"/>
    </edge>
    <edge id=":C3_13" function="internal">
        <lane id=":C3_13_0" index="0" speed="13.89" length="15.10" shape="222.89,492.97 226.25,478.24"/>
    </edge>
    <edge id=":C3_14" function="internal">
        <lane id=":C3_14_0" index="0" speed="10.14" length="3.58" shape="222.89,492.97 224.19,489.83 224.31,489.70"/>
    </edge>
    <edge id=":C3_15" function="internal">
        <lane id=":C3_15_0" index="0" speed="3.65" length="1.44" shape="222.89,492.97 223.94,491.98"/>
    </edge>
    <edge id=":C3_18" function="internal">
        <lane id=":C3_18_0" index="0" speed="10.14" length="11.81" shape="224.31,489.70 226.52,487.28 229.89,485.29 234.30,483.88"/>
    </edge>
    <edge id=":C3_19" function="internal">
        <lane id=":C3_19_0" index="0" speed="3.65" length="3.23" shape="223.94,491.98 224.81,491.76 225.50,492.33 226.01,493.68"/>
    </edge>
    <edge id=":C4_0" function="internal">
        <lane id=":C4_0_0" index="0" speed="8.94" length="11.80" shape="96.21,386.18 93.16,384.10 90.34,382.94 87.74,382.67 85.38,383.30"/>
    </edge>
    <edge id=":C4_1" function="internal">
        <lane id=":C4_1_0" index="0" speed="12.79" length="18.40" shape="96.21,386.18 92.83,382.87 90.42,379.10 88.98,374.86 88.50,370.16"/>
    </edge>
    <edge id=":C4_2" function="internal">
        <lane id=":C4_2_0" index="0" speed="7.44" length="16.31" shape="96.21,386.18 92.88,382.68 92.01,379.47 93.58,376.53 97.59,373.87"/>
    </edge>
    <edge id=":C4_3" function="internal">
        <lane id=":C4_3_0" index="0" speed="3.65" length="4.67" shape="96.21,386.18 95.77,384.80 95.95,383.93 96.77,383.55 98.20,383.67"/>
    </edge>
    <edge id=":C4_4" function="internal">
        <lane id=":C4_4_0" index="0" speed="5.75" length="9.17" shape="98.98,376.75 96.72,378.25 95.84,379.90 96.33,381.71 98.20,383.67"/>
    </edge>
    <edge id=":C4_5" function="internal">
        <lane id=":C4_5_0" index="0" speed="13.89" length="15.10" shape="98.98,376.75 85.38,383.30"/>
    </edge>
    <edge id=":C4_6" function="internal">
        <lane id=":C4_6_0" index="0" speed="7.44" length="4.82" shape="98.98,376.75 94.40,378.23"/>
    </edge>
    <edge id=":C4_7" function="internal">
        <lane id=":C4_7_0" index="0" speed="3.65" length="1.44" shape="98.98,376.75 97.56,376.55"/>
    </edge>
    <edge id=":C4_16" function="internal">
        <lane id=":C4_16_0" index="0" speed="7.44" length="11.49" shape="94.40,378.23 91.12,377.63 89.15,374.94 88.50,370.16"/>
    </edge>
    <edge id=":C4_17" function="internal">
        <lane id=":C4_17_0" index="0" speed="3.65" length="3.23" shape="97.56,376.55 96.85,376.00 96.86,375.11 97.59,373.87"/>
    </edge>
    <edge id=":C4_8" function="internal">
        <lane id=":C4_8_0" index="0" speed="5.75" length="9.17" shape="91.70,370.16 92.07,372.85 93.17,374.36 95.01,374.70 97.59,373.87"/>
    </edge>
    <edge id=":C4_9" function="internal">
        <lane id=":C4_9_0" index="0" speed="11.78" length="15.52" shape="91.70,370.16 92.10,374.13 93.32,377.70 95.36,380.88 98.20,383.67"/>
    </edge>
    <edge id=":C4_10" function="internal">
        <lane id=":C4_10_0" index="0" speed="10.14" length="15.39" shape="91.70,370.16 91.30,374.77 90.12,378.50 88.14,381.34 85.38,383.30"/>
    </edge>
    <edge id=":C4_11" function="internal">