<?xml version="1.0" encoding="UTF-8"?>

<!-- generated on 2023-10-09 15:48:49.779827 by randomTrips.py v1_18_0+0000-03ecfdea036
<configuration>
    <net-file value="./assets\spider2.net.xml"/>
    <route-file value="./assets\spider2.rou.xml"/>
    <end value="1000.0"/>
</configuration>
-->

<!-- generated on 2023-10-09 15:48:49 by Eclipse SUMO duarouter Version 1.18.0
<configuration xmlns:xsi="http://www.w3.org/2001/XMLSchema-instance" xsi:noNamespaceSchemaLocation="http://sumo.dlr.de/xsd/duarouterConfiguration.xsd">

    <input>
        <net-file value="./assets\spider2.net.xml"/>
        <route-files value="trips.trips.xml"/>
    </input>

    <output>
        <output-file value="./assets\spider2.rou.xml"/>
        <alternatives-output value="NUL"/>
    </output>

    <time>
        <begin value="0"/>
        <end value="1000.0"/>
    </time>

    <report>
        <no-warnings value="true"/>
        <ignore-errors value="true"/>
        <no-step-log value="true"/>
    </report>

</configuration>
-->

<routes xmlns:xsi="http://www.w3.org/2001/XMLSchema-instance" xsi:noNamespaceSchemaLocation="http://sumo.dlr.de/xsd/routes_file.xsd">
    <vehicle id="0" depart="0.00">
        <route edges="CM7CL7 CL7CK7 CK7CJ7 CJ7CI7 CI7CH7 CH7CG7 CG7CF7 CF7CE7 CE7CD7 CD7CC7 CC7CB7 CB7CA7 CA7BZ7 BZ7BY7 BY7BX7 BX7BW7 BW7BV7 BV7BU7 BU7BT7 BT7BS7 BS7BR7 BR7BQ7 BQ7BP7 BP7BO7 BO7BN7 BN7BM7 BM7BL7 BL7BK7 BK7BJ7 BJ7BI7 BI7BH7 BH7BG7 BG7BF7 BF7BE7 BE7BD7 BD7BC7 BC7BB7 BB7BA7 BA7AZ7 AZ7AY7 AY7AX7 AX7AW7 AW7AV7 AV7AU7 AU7AT7 AT7AS7 AS7AR7 AR7AQ7 AQ7AP7 AP7AO7 AO7AN7 AN7AM7 AM7AL7 AL7AK7 AK7AJ7 AJ7AI7 AI7AH7 AH7AG7 AG7AF7 AF7AE7 AE7AD7 AD7AD6 AD6AC6"/>
    </vehicle>
    <vehicle id="1" depart="1.00">
        <route edges="BC5BC4 BC4BB4 BB4BA4 BA4AZ4 AZ4AY4 AY4AX4 AX4AW4"/>
    </vehicle>
    <vehicle id="2" depart="2.00">
        <route edges="CW4CW5 CW5CV5 CV5CU5 CU5CT5 CT5CS5 CS5CR5 CR5CQ5 CQ5CP5"/>
    </vehicle>
    <vehicle id="3" depart="3.00">
        <route edges="DM1DL1 DL1DK1 DK1DJ1 DJ1DI1 DI1DH1 DH1DG1 DG1DF1 DF1DE1 DE1DD1 DD1DC1 DC1DB1 DB1DA1 DA1CZ1 CZ1CY1 CY1CX1 CX1CW1 CW1CV1 CV1CU1 CU1CT1 CT1CS1 CS1CR1 CR1CQ1 CQ1CP1 CP1CO1 CO1CN1 CN1CM1 CM1CL1 CL1CK1 CK1CJ1 CJ1CI1 CI1CH1 CH1CG1 CG1CF1 CF1CE1 CE1CD1 CD1CC1 CC1CB1 CB1CA1 CA1BZ1 BZ1BY1 BY1BX1 BX1BW1 BW1BV1 BV1BU1 BU1BT1 BT1BS1 BS1BR1 BR1BQ1 BQ1BP1 BP1BO1 BO1BN1 BN1BM1 BM1BL1 BL1BK1 BK1BJ1 BJ1BI1 BI1BH1 BH1BG1 BG1BF1 BF1BE1 BE1BD1 BD1BC1 BC1BB1 BB1BA1 BA1AZ1 AZ1AY1 AY1AX1 AX1AW1 AW1AV1 AV1AU1 AU1AT1 AT1AS1 AS1AR1 AR1AQ1 AQ1AP1 AP1AO1 AO1AN1 AN1AM1 AM1AL1 AL1AK1 AK1AJ1 AJ1AJ7 AJ7AJ1"/>
    </vehicle>
    <vehicle id="4" depart="4.00">
        <route edges="BR2BR3 BR3BQ3 BQ3BP3 BP3BO3 BO3BN3 BN3BM3 BM3BL3 BL3BK3 BK3BJ3 BJ3BI3 BI3BH3 BH3BG3 BG3BF3 BF3BE3 BE3BD3 BD3BC3 BC3BB3 BB3BA3 BA3AZ3 AZ3AY3 AY3AX3 AX3AW3 AW3AV3 AV3AU3 AU3AT3 AT3AS3 AS3AR3 AR3AQ3 AQ3AP3 AP3AO3 AO3AN3 AN3AM3 AM3AL3 AL3AK3 AK3AJ3 AJ3AI3 AI3AH3 AH3AG3 AG3AF3 AF3AE3 AE3AE2 AE2AE3"/>
    </vehicle>
    <vehicle id="5" depart="5.00">
        <route edges="AX1AW1 AW1AV1 AV1AU1 AU1AT1 AT1AS1 AS1AR1 AR1AQ1 AQ1AP1 AP1AO1 AO1AN1 AN1AM1 AM1AL1 AL1AK1 AK1AJ1 AJ1AI1 AI1AH1 AH1AG1 AG1AF1 AF1AE1 AE1AD1 AD1AC1 AC1AB1 AB1AB2 AB2AB3 AB3AB4 AB4AC4 AC4AD4 AD4AE4 AE4AF4 AF4AG4 AG4AH4 AH4AI4 AI4AJ4 AJ4AK4 AK4AL4 AL4AM4 AM4AN4 AN4AO4 AO4AP4 AP4AQ4 AQ4AR4 AR4AS4 AS4AT4 AT4AU4 AU4AV4 AV4AW4 AW4AX4 AX4AY4 AY4AZ4 AZ4BA4 BA4BB4 BB4BC4 BC4BD4 BD4BE4 BE4BF4 BF4BG4 BG4BH4 BH4BI4 BI4BJ4 BJ4BK4 BK4BL4 BL4BM4 BM4BN4 BN4BO4 BO4BP4 BP4BQ4 BQ4BR4 BR4BS4 BS4BT4 BT4BU4 BU4BV4 BV4BW4 BW4BX4 BX4BY4 BY4BZ4 BZ4BZ5"/>
    </vehicle>
    <vehicle id="6" depart="6.00">
        <route edges="AD7AC7 AC7AC1 AC1AD1 AD1AE1 AE1AF1 AF1AG1 AG1AH1 AH1AI1 AI1AJ1 AJ1AK1 AK1AL1 AL1AM1 AM1AN1 AN1AO1 AO1AP1 AP1AQ1 AQ1AR1 AR1AS1 AS1AT1 AT1AU1 AU1AV1 AV1AU1"/>
    </vehicle>
    <vehicle id="7" depart="7.00">
        <route edges="CN7CN1 CN1CM1 CM1CL1 CL1CK1 CK1CJ1 CJ1CI1 CI1CH1 CH1CG1 CG1CF1 CF1CE1 CE1CD1 CD1CC1 CC1CB1 CB1CA1 CA1BZ1 BZ1BY1 BY1BX1 BX1BW1 BW1BV1 BV1BU1 BU1BT1 BT1BS1 BS1BR1 BR1BQ1 BQ1BP1 BP1BO1 BO1BN1 BN1BM1 BM1BL1 BL1BK1 BK1BJ1 BJ1BI1 BI1BH1 BH1BG1 BG1BF1 BF1BE1 BE1BD1 BD1BC1 BC1BB1 BB1BA1 BA1AZ1 AZ1AY1 AY1AX1 AX1AW1 AW1AV1 AV1AU1 AU1AT1 AT1AS1 AS1AR1 AR1AQ1 AQ1AP1 AP1AO1 AO1AN1 AN1AM1 AM1AL1 AL1AK1 AK1AJ1 AJ1AI1 AI1AH1 AH1AG1 AG1AF1 AF1AE1 AE1AD1 AD1AC1 AC1AB1 AB1AB2 AB2AB3 AB3AB4 AB4AC4 AC4AD4 AD4AE4 AE4AF4 AF4AG4 AG4AH4 AH4AI4 AI4AJ4 AJ4AK4 AK4AL4 AL4AM4 AM4AN4 AN4AO4 AO4AP4 AP4AQ4 AQ4AR4 AR4AS4 AS4AT4 AT4AU4 AU4AV4 AV4AW4 AW4AX4 AX4AY4 AY4AZ4 AZ4BA4 BA4BB4 BB4BC4 BC4BD4 BD4BE4 BE4BF4 BF4BG4 BG4BH4 BH4BI4 BI4BJ4 BJ4BK4 BK4BL4 BL4BM4 BM4BN4 BN4BO4 BO4BP4 BP4BQ4 BQ4BR4 BR4BS4 BS4BT4 BT4BU4 BU4BV4 BV4BW4 BW4BX4 BX4BY4 BY4BZ4 BZ4CA4 CA4CB4 CB4CC4 CC4CD4 CD4CD3"/>
    </vehicle>
    <vehicle id="8" depart="8.00">
        <route edges="AX2AX1 AX1AX7 AX7AY7 AY7AZ7 AZ7BA7 BA7BB7 BB7BC7 BC7BD7 BD7BE7 BE7BF7 BF7BG7 BG7BH7 BH7BI7 BI7BJ7 BJ7BK7 BK7BL7 BL7BM7 BM7BN7 BN7BO7 BO7BP7 BP7BQ7 BQ7BR7 BR7BS7 BS7BT7 BT7BU7 BU7BV7 BV7BW7 BW7BX7 BX7BY7 BY7BZ7 BZ7CA7 CA7CB7 CB7CC7 CC7CD7 CD7CE7 CE7CF7 CF7CG7 CG7CH7 CH7CG7"/>
    </vehicle>
    <vehicle id="9" depart="9.00">
        <route edges="DD6DD7 DD7DC7 DC7DB7 DB7DA7 DA7CZ7 CZ7CY7 CY7CX7 CX7CW7 CW7CV7 CV7CU7 CU7CT7 CT7CS7 CS7CR7 CR7CQ7 CQ7CP7 CP7CO7 CO7CN7 CN7CM7 CM7CL7 CL7CK7 CK7CJ7 CJ7CI7 CI7CH7 CH7CG7 CG7CF7 CF7CE7 CE7CD7 CD7CC7 CC7CB7 CB7CA7 CA7BZ7 BZ7BY7 BY7BX7 BX7BW7 BW7BV7 BV7BU7 BU7BT7 BT7BS7 BS7BR7 BR7BQ7 BQ7BP7 BP7BO7 BO7BN7 BN7BM7 BM7BL7 BL7BK7 BK7BJ7 BJ7BI7 BI7BH7 BH7BG7 BG7BF7 BF7BE7 BE7BD7 BD7BC7 BC7BB7 BB7BA7 BA7AZ7 AZ7AY7 AY7AX7 AX7AW7 AW7AV7 AV7AU7 AU7AT7 AT7AS7 AS7AR7 AR7AQ7 AQ7AP7 AP7AO7 AO7AN7 AN7AM7 AM7AL7 AL7AK7 AK7AJ7 AJ7AI7 AI7AH7 AH7AG7 AG7AF7 AF7AE7 AE7AD7 AD7AC7 AC7AB7 AB7AB1"/>
    </vehicle>
    <vehicle id="10" depart="10.00">
        <route edges="DD4DC4 DC4DB4 DB4DA4 DA4CZ4 CZ4CY4 CY4CX4 CX4CW4 CW4CV4 CV4CU4 CU4CT4 CT4CS4 CS4CS5 CS5CS6 CS6CR6"/>
    </vehicle>
    <vehicle id="11" depart="11.00">
        <route edges="BJ1BJ7 BJ7BI7 BI7BH7 BH7BG7 BG7BF7 BF7BE7 BE7BD7 BD7BC7 BC7BB7 BB7BA7 BA7AZ7 AZ7AY7 AY7AX7 AX7AW7 AW7AV7 AV7AU7 AU7AT7 AT7AS7 AS7AR7 AR7AQ7 AQ7AQ6 AQ6AP6"/>
    </vehicle>
    <vehicle id="12" depart="12.00">
        <route edges="DS4DS3 DS3DR3 DR3DQ3 DQ3DP3 DP3DO3 DO3DN3 DN3DM3 DM3DL3 DL3DK3 DK3DJ3 DJ3DI3 DI3DH3 DH3DG3 DG3DF3 DF3DE3 DE3DD3 DD3DC3 DC3DB3 DB3DA3 DA3CZ3 CZ3CY3 CY3CX3 CX3CW3 CW3CV3 CV3CU3 CU3CT3 CT3CS3 CS3CR3 CR3CQ3 CQ3CP3 CP3CO3 CO3CN3 CN3CM3 CM3CL3 CL3CK3 CK3CJ3 CJ3CI3 CI3CH3 CH3CG3 CG3CF3 CF3CE3 CE3CD3 CD3CC3 CC3CB3 CB3CA3 CA3BZ3 BZ3BY3 BY3BX3 BX3BW3 BW3BV3 BV3BU3 BU3BT3 BT3BS3 BS3BR3 BR3BQ3 BQ3BP3 BP3BO3 BO3BN3 BN3BM3 BM3BL3 BL3BK3 BK3BJ3 BJ3BI3 BI3BH3 BH3BG3 BG3BF3 BF3BE3 BE3BD3 BD3BC3 BC3BB3 BB3BA3 BA3AZ3 AZ3AY3 AY3AX3 AX3AW3 AW3AV3 AV3AU3 AU3AT3 AT3AS3 AS3AR3 AR3AQ3 AQ3AP3 AP3AO3 AO3AN3 AN3AM3 AM3AL3 AL3AK3 AK3AJ3 AJ3AI3 AI3AH3 AH3AG3 AG3AF3 AF3AE3 AE3AD3 AD3AC3 AC3AB3 AB3AB4 AB4AB5 AB5AB6 AB6AC6 AC6AD6 AD6AE6 AE6AF6 AF6AG6 AG6AH6 AH6AI6 AI6AJ6 AJ6AK6 AK6AL6 AL6AM6 AM6AN6 AN6AO6 AO6AP6 AP6AQ6 AQ6AR6 AR6AS6 AS6AT6 AT6AU6 AU6AV6 AV6AW6 AW6AX6 AX6AY6 AY6AZ6 AZ6BA6 BA6BB6 BB6BC6 BC6BD6 BD6BE6 BE6BF6 BF6BG6 BG6BH6 BH6BI6 BI6BH6"/>
    </vehicle>
    <vehicle id="13" depart="13.00">
        <route edges="AK4AK3 AK3AJ3 AJ3AI3 AI3AH3 AH3AG3 AG3AF3 AF3AE3 AE3AD3 AD3AC3 AC3AB3 AB3AB2 AB2AB1 AB1AB7 AB7AC7 AC7AD7 AD7AE7 AE7AF7 AF7AG7 AG7AH7 AH7AI7 AI7AJ7 AJ7AK7 AK7AJ7"/>
    </vehicle>
    <vehicle id="14" depart="14.00">
        <route edges="DH5DG5 DG5DF5 DF5DE5 DE5DD5 DD5DC5 DC5DB5 DB5DA5 DA5CZ5 CZ5CY5 CY5CX5 CX5CW5 CW5CV5 CV5CU5 CU5CT5 CT5CS5 CS5CR5 CR5CQ5 CQ5CP5 CP5CO5 CO5CN5 CN5CM5 CM5CL5 CL5CK5 CK5CJ5 CJ5CJ4 CJ4CJ3 CJ3CI3"/>
    </vehicle>
    <vehicle id="15" depart="15.00">
        <route edges="DD4DE4 DE4DD4 DD4DC4 DC4DB4 DB4DA4 DA4CZ4 CZ4CY4 CY4CX4 CX4CW4 CW4CV4 CV4CU4 CU4CT4 CT4CS4 CS4CR4 CR4CQ4 CQ4CP4 CP4CO4 CO4CN4 CN4CM4 CM4CL4 CL4CK4 CK4CJ4 CJ4CI4 CI4CH4 CH4CG4 CG4CF4 CF4CE4 CE4CD4 CD4CC4 CC4CB4 CB4CA4 CA4BZ4 BZ4BY4 BY4BX4 BX4BW4 BW4BV4 BV4BU4 BU4BT4 BT4BS4 BS4BR4 BR4BQ4 BQ4BP4 BP4BO4 BO4BN4 BN4BM4 BM4BL4 BL4BK4 BK4BJ4 BJ4BI4 BI4BH4 BH4BG4 BG4BF4 BF4BE4 BE4BD4 BD4BC4 BC4BB4 BB4BA4 BA4AZ4 AZ4AY4 AY4AX4 AX4AW4 AW4AV4 AV4AU4 AU4AT4 AT4AS4 AS4AR4 AR4AQ4 AQ4AP4 AP4AO4 AO4AN4 AN4AM4 AM4AL4 AL4AK4 AK4AJ4 AJ4AI4 AI4AH4 AH4AG4 AG4AF4 AF4AE4 AE4AD4 AD4AC4 AC4AB4 AB4AB5 AB5AB6 AB6AB7 AB7AC7 AC7AD7 AD7AE7 AE7AF7 AF7AG7 AG7AH7 AH7AI7 AI7AJ7 AJ7AK7 AK7AL7 AL7AM7 AM7AN7 AN7AO7 AO7AP7 AP7AQ7 AQ7AR7 AR7AS7 AS7AT7 AT7AU7 AU7AV7 AV7AW7 AW7AX7 AX7AY7 AY7AZ7 AZ7BA7 BA7BB7 BB7BC7 BC7BD7 BD7BE7 BE7BF7 BF7BG7 BG7BH7 BH7BI7 BI7BJ7 BJ7BK7 BK7BL7 BL7BM7 BM7BN7 BN7BO7 BO7BP7 BP7BQ7 BQ7BR7 BR7BS7 BS7BT7 BT7BU7 BU7BV7 BV7BW7 BW7BX7 BX7BY7 BY7BZ7 BZ7CA7 CA7CB7 CB7CC7 CC7CD7 CD7CE7 CE7CF7 CF7CG7 CG7CH7 CH7CI7 CI7CJ7 CJ7CK7 CK7CL7 CL7CM7 CM7CN7 CN7CO7 CO7CP7 CP7CQ7 CQ7CR7 CR7CS7 CS7CT7 CT7CU7 CU7CV7 CV7CU7"/>
    </vehicle>
    <vehicle id="16" depart="16.00">
        <route edges="CC5CB5 CB5CA5 CA5BZ5 BZ5BY5 BY5BX5 BX5BW5 BW5BV5 BV5BU5 BU5BT5 BT5BS5 BS5BR5 BR5BQ5 BQ5BP5 BP5BO5 BO5BN5 BN5BM5 BM5BL5 BL5BK5 BK5BJ5 BJ5BI5 BI5BH5 BH5BG5 BG5BF5 BF5BE5 BE5BD5 BD5BC5 BC5BB5 BB5BA5 BA5AZ5 AZ5AY5 AY5AX5 AX5AW5 AW5AV5 AV5AU5 AU5AT5 AT5AS5 AS5AR5 AR5AQ5 AQ5AP5 AP5AO5 AO5AN5 AN5AM5 AM5AL5 AL5AK5 AK5AJ5 AJ5AI5 AI5AH5 AH5AG5 AG5AF5 AF5AE5 AE5AD5 AD5AC5 AC5AB5 AB5AB6 AB6AB7 AB7AB1 AB1AC1 AC1AD1 AD1AE1 AE1AF1 AF1AG1 AG1AH1 AH1AI1 AI1AJ1 AJ1AK1 AK1AL1 AL1AM1 AM1AN1 AN1AO1 AO1AP1 AP1AQ1 AQ1AR1 AR1AS1 AS1AT1 AT1AU1 AU1AV1 AV1AW1 AW1AX1 AX1AY1 AY1AZ1 AZ1BA1 BA1BB1 BB1BC1 BC1BD1 BD1BE1 BE1BF1 BF1BG1 BG1BH1 BH1BI1 BI1BJ1 BJ1BK1 BK1BL1 BL1BM1 BM1BN1 BN1BO1 BO1BP1 BP1BQ1 BQ1BR1 BR1BS1 BS1BT1 BT1BU1 BU1BV1 BV1BW1 BW1BX1 BX1BY1 BY1BZ1 BZ1CA1 CA1CB1 CB1CC1 CC1CD1 CD1CE1 CE1CF1 CF1CG1 CG1CH1 CH1CI1 CI1CJ1 CJ1CK1 CK1CL1 CL1CM1 CM1CN1 CN1CO1 CO1CP1 CP1CQ1 CQ1CR1 CR1CS1 CS1CT1 CT1CU1 CU1CV1 CV1CW1 CW1CX1 CX1CY1 CY1CZ1 CZ1DA1 DA1DB1 DB1DC1 DC1DD1 DD1DE1 DE1DF1 DF1DG1 DG1DH1 DH1DI1 DI1DJ1 DJ1DK1 DK1DL1 DL1DM1 DM1DN1 DN1DO1 DO1DP1 DP1DQ1 DQ1DR1 DR1DS1 DS1DT1 DT1DU1 DU1DU7"/>
    </vehicle>
    <vehicle id="17" depart="17.00">
        <route edges="BM7BM1 BM1BM2 BM2BN2 BN2BO2 BO2BP2 BP2BQ2 BQ2BR2 BR2BS2 BS2BT2 BT2BU2 BU2BV2 BV2BW2 BW2BX2 BX2BY2 BY2BZ2 BZ2CA2 CA2CB2 CB2CC2 CC2CD2 CD2CE2 CE2CD2"/>
    </vehicle>
    <vehicle id="18" depart="18.00">
        <route edges="DF6DF5 DF5DE5 DE5DD5 DD5DC5 DC5DB5 DB5DA5 DA5CZ5 CZ5CY5 CY5CX5 CX5CW5 CW5CV5 CV5CU5 CU5CT5 CT5CS5 CS5CR5 CR5CQ5 CQ5CP5 CP5CO5 CO5CN5 CN5CM5 CM5CL5 CL5CK5 CK5CK6 CK6CK7"/>
    </vehicle>
    <vehicle id="19" depart="19.00">
        <route edges="DI7DJ7 DJ7DI7 DI7DH7 DH7DG7 DG7DF7 DF7DE7 DE7DD7 DD7DC7 DC7DB7 DB7DA7 DA7CZ7 CZ7CY7 CY7CX7 CX7CW7 CW7CV7 CV7CU7 CU7CT7 CT7CS7 CS7CR7 CR7CQ7 CQ7CP7 CP7CO7 CO7CN7 CN7CM7 CM7CL7 CL7CK7 CK7CJ7 CJ7CI7 CI7CH7 CH7CG7 CG7CG6 CG6CG5 CG5CH5"/>
    </vehicle>
    <vehicle id="20" depart="20.00">
        <route edges="CT3CT2 CT2CS2 CS2CR2 CR2CQ2 CQ2CP2 CP2CO2 CO2CN2 CN2CM2 CM2CL2 CL2CK2 CK2CJ2 CJ2CI2 CI2CH2 CH2CG2 CG2CF2 CF2CE2 CE2CD2 CD2CC2 CC2CB2 CB2CA2 CA2BZ2 BZ2BY2 BY2BX2 BX2BW2 BW2BV2 BV2BU2 BU2BT2 BT2BS2 BS2BR2 BR2BQ2 BQ2BP2 BP2BO2 BO2BN2 BN2BM2 BM2BL2 BL2BK2 BK2BJ2 BJ2BI2 BI2BH2 BH2BG2 BG2BF2 BF2BE2 BE2BD2 BD2BC2 BC2BB2 BB2BA2 BA2AZ2 AZ2AY2 AY2AX2 AX2AW2 AW2AV2 AV2AU2 AU2AT2 AT2AS2 AS2AR2 AR2AQ2 AQ2AP2 AP2AO2 AO2AN2 AN2AM2 AM2AL2 AL2AK2 AK2AJ2 AJ2AI2 AI2AH2 AH2AG2 AG2AF2 AF2AE2 AE2AD2 AD2AC2 AC2AB2 AB2AB1 AB1AB7 AB7AB6 AB6AC6 AC6AD6 AD6AE6 AE6AF6 AF6AF7"/>
    </vehicle>
    <vehicle id="21" depart="21.00">
        <route edges="AX7AX1 AX1AY1 AY1AZ1 AZ1BA1 BA1BB1 BB1BC1 BC1BD1 BD1BE1 BE1BE2"/>
    </vehicle>
    <vehicle id="22" depart="22.00">
        <route edges="AJ2AJ1 AJ1AJ2 AJ2AJ3 AJ3AK3 AK3AL3 AL3AM3 AM3AN3 AN3AO3 AO3AP3 AP3AQ3 AQ3AR3 AR3AS3 AS3AT3 AT3AU3 AU3AV3 AV3AW3 AW3AX3 AX3AY3 AY3AZ3"/>
    </vehicle>
    <vehicle id="23" depart="23.00">
        <route edges="AL3AK3 AK3AJ3 AJ3AI3 AI3AH3 AH3AG3 AG3AF3 AF3AE3 AE3AD3 AD3AC3 AC3AB3 AB3AB2 AB2AB1 AB1AB7 AB7AC7 AC7AD7 AD7AE7 AE7AF7 AF7AG7 AG7AH7 AH7AI7 AI7AJ7 AJ7AK7 AK7AL7 AL7AM7 AM7AN7 AN7AO7 AO7AP7 AP7AQ7 AQ7AR7 AR7AS7 AS7AT7 AT7AU7 AU7AV7 AV7AW7 AW7AX7 AX7AY7 AY7AZ7 AZ7BA7 BA7BB7 BB7BC7 BC7BC1"/>
    </vehicle>
    <vehicle id="24" depart="24.00">
        <route edges="CM4CM5 CM5CL5 CL5CK5 CK5CJ5 CJ5CI5 CI5CH5 CH5CG5 CG5CF5 CF5CE5 CE5CD5 CD5CC5 CC5CB5 CB5CA5 CA5BZ5 BZ5BY5 BY5BX5 BX5BW5 BW5BV5 BV5BU5 BU5BT5 BT5BS5 BS5BR5 BR5BQ5 BQ5BP5 BP5BO5 BO5BN5 BN5BM5 BM5BL5 BL5BL4 BL4BM4"/>
    </vehicle>
    <vehicle id="25" depart="25.00">
        <route edges="BM1BM7 BM7BL7 BL7BK7 BK7BJ7 BJ7BI7 BI7BH7 BH7BG7 BG7BF7 BF7BE7 BE7BD7 BD7BC7 BC7BB7 BB7BA7 BA7AZ7 AZ7AY7 AY7AX7 AX7AW7 AW7AW1 AW1AW7"/>
    </vehicle>
    <vehicle id="26" depart="26.00">
        <route edges="BB6BB7 BB7BA7 BA7AZ7 AZ7AY7 AY7AX7 AX7AW7 AW7AV7 AV7AU7 AU7AT7 AT7AS7 AS7AR7 AR7AQ7 AQ7AP7 AP7AO7 AO7AN7 AN7AM7 AM7AL7 AL7AK7 AK7AJ7 AJ7AI7 AI7AH7 AH7AG7 AG7AF7 AF7AE7 AE7AD7 AD7AC7 AC7AB7 AB7AB6 AB6AB5 AB5AB4 AB4AC4 AC4AD4 AD4AE4 AE4AF4 AF4AG4 AG4AH4 AH4AI4 AI4AJ4 AJ4AK4 AK4AL4 AL4AM4 AM4AN4 AN4AO4 AO4AP4 AP4AQ4 AQ4AR4 AR4AS4 AS4AT4 AT4AU4 AU4AV4 AV4AW4 AW4AX4 AX4AY4 AY4AZ4 AZ4BA4 BA4BB4 BB4BC4 BC4BD4 BD4BE4 BE4BF4 BF4BG4 BG4BH4 BH4BI4 BI4BJ4 BJ4BK4 BK4BL4 BL4BM4 BM4BN4 BN4BO4 BO4BP4 BP4BQ4 BQ4BR4 BR4BS4 BS4BT4 BT4BU4 BU4BV4 BV4BW4 BW4BX4 BX4BY4 BY4BZ4 BZ4CA4 CA4CB4 CB4CC4 CC4CD4 CD4CE4 CE4CF4 CF4CG4 CG4CH4 CH4CI4 CI4CJ4 CJ4CK4 CK4CL4 CL4CM4 CM4CN4 CN4CO4 CO4CP4 CP4CQ4 CQ4CR4 CR4CS4 CS4CT4 CT4CU4 CU4CV4 CV4CW4 CW4CX4 CX4CY4 CY4CZ4 CZ4DA4 DA4DB4 DB4DC4 DC4DD4 DD4DE4 DE4DF4 DF4DG4 DG4DH4 DH4DI4 DI4DJ4 DJ4DK4 DK4DL4 DL4DM4 DM4DN4 DN4DO4 DO4DP4 DP4DQ4 DQ4DP4"/>
    </vehicle>
    <vehicle id="27" depart="27.00">
        <route edges="CN6CM6 CM6CL6 CL6CK6 CK6CJ6 CJ6CJ7 CJ7CI7"/>
    </vehicle>
    <vehicle id="28" depart="28.00">
        <route edges="AS2AT2 AT2AS2 AS2AR2 AR2AQ2 AQ2AP2 AP2AO2 AO2AN2 AN2AM2 AM2AL2 AL2AK2 AK2AJ2 AJ2AI2 AI2AH2 AH2AG2 AG2AF2 AF2AE2 AE2AD2 AD2AC2 AC2AB2 AB2AB1 AB1AB7 AB7AB6 AB6AC6 AC6AD6 AD6AE6 AE6AF6 AF6AG6 AG6AH6 AH6AI6 AI6AJ6 AJ6AK6 AK6AL6 AL6AM6 AM6AN6 AN6AO6 AO6AP6 AP6AQ6 AQ6AR6 AR6AS6 AS6AT6 AT6AU6 AU6AV6 AV6AW6 AW6AX6 AX6AY6 AY6AZ6 AZ6BA6 BA6BB6 BB6BC6 BC6BD6 BD6BE6 BE6BF6 BF6BG6 BG6BH6 BH6BI6 BI6BJ6 BJ6BK6 BK6BL6 BL6BM6 BM6BN6 BN6BO6 BO6BP6 BP6BQ6 BQ6BR6 BR6BS6 BS6BT6 BT6BU6 BU6BV6 BV6BW6 BW6BX6 BX6BY6 BY6BZ6 BZ6CA6 CA6CB6 CB6CC6 CC6CD6 CD6CE6 CE6CF6 CF6CG6 CG6CH6 CH6CI6 CI6CJ6 CJ6CK6 CK6CL6 CL6CM6 CM6CN6 CN6CO6 CO6CP6 CP6CQ6 CQ6CR6 CR6CS6 CS6CT6 CT6CU6 CU6CV6 CV6CV7"/>
    </vehicle>
    <vehicle id="29" depart="29.00">
        <route edges="AR4AR5 AR5AQ5 AQ5AP5 AP5AO5 AO5AN5 AN5AM5 AM5AL5 AL5AK5 AK5AJ5 AJ5AI5 AI5AH5 AH5AG5 AG5AF5 AF5AE5 AE5AD5 AD5AC5 AC5AB5 AB5AB6 AB6AB7 AB7AB1 AB1AC1 AC1AD1 AD1AE1 AE1AF1 AF1AG1 AG1AH1 AH1AI1 AI1AJ1 AJ1AK1 AK1AL1 AL1AM1 AM1AN1 AN1AO1 AO1AP1 AP1AQ1 AQ1AR1 AR1AS1 AS1AT1 AT1AU1 AU1AV1 AV1AW1 AW1AX1 AX1AY1 AY1AZ1 AZ1BA1 BA1BB1 BB1BC1 BC1BD1 BD1BE1 BE1BF1 BF1BG1 BG1BH1 BH1BI1 BI1BJ1 BJ1BK1 BK1BL1 BL1BM1 BM1BN1 BN1BM1"/>
    </vehicle>
    <vehicle id="30" depart="30.00">
        <route edges="DV5DW5 DW5DV5 DV5DU5 DU5DT5 DT5DS5 DS5DR5 DR5DQ5 DQ5DP5 DP5DO5 DO5DN5 DN5DM5 DM5DL5 DL5DK5 DK5DJ5 DJ5DI5 DI5DH5 DH5DG5 DG5DF5 DF5DE5 DE5DD5 DD5DC5 DC5DB5 DB5DA5 DA5CZ5 CZ5CY5 CY5CX5 CX5CW5 CW5CV5 CV5CU5 CU5CT5 CT5CS5 CS5CR5 CR5CQ5 CQ5CP5 CP5CO5 CO5CN5 CN5CM5 CM5CM6 CM6CM7 CM7CM6"/>
    </vehicle>
    <vehicle id="31" depart="31.00">
        <route edges="CE5CE6 CE6CD6 CD6CC6 CC6CB6 CB6CA6 CA6BZ6 BZ6BY6 BY6BX6 BX6BW6 BW6BV6 BV6BU6 BU6BT6 BT6BS6 BS6BR6 BR6BQ6 BQ6BP6 BP6BO6 BO6BN6 BN6BM6 BM6BL6 BL6BK6 BK6BJ6 BJ6BI6 BI6BH6 BH6BG6 BG6BF6 BF6BE6 BE6BD6 BD6BC6 BC6BB6 BB6BA6 BA6AZ6 AZ6AY6 AY6AX6 AX6AW6 AW6AV6 AV6AU6 AU6AT6 AT6AS6 AS6AR6 AR6AQ6 AQ6AP6 AP6AO6 AO6AN6 AN6AM6 AM6AL6 AL6AK6 AK6AJ6 AJ6AI6 AI6AH6 AH6AG6 AG6AF6 AF6AE6 AE6AD6 AD6AC6 AC6AB6 AB6AB5 AB5AB4 AB4AB3 AB3AC3 AC3AD3 AD3AE3 AE3AF3 AF3AG3 AG3AH3 AH3AI3 AI3AJ3 AJ3AK3 AK3AL3 AL3AM3 AM3AN3 AN3AO3 AO3AP3 AP3AQ3 AQ3AR3 AR3AS3 AS3AT3 AT3AU3 AU3AV3 AV3AW3 AW3AX3 AX3AY3 AY3AZ3 AZ3BA3 BA3BB3 BB3BC3 BC3BD3 BD3BE3 BE3BF3 BF3BG3 BG3BH3 BH3BI3 BI3BJ3 BJ3BK3 BK3BL3 BL3BM3 BM3BN3 BN3BO3 BO3BP3 BP3BQ3 BQ3BR3 BR3BS3 BS3BT3 BT3BU3 BU3BV3 BV3BW3 BW3BX3 BX3BY3 BY3BZ3 BZ3CA3 CA3CB3 CB3CC3 CC3CD3 CD3CE3 CE3CF3 CF3CG3 CG3CH3 CH3CI3 CI3CJ3 CJ3CK3 CK3CL3 CL3CM3 CM3CN3 CN3CO3 CO3CP3 CP3CQ3 CQ3CR3 CR3CR4"/>
    </vehicle>
    <vehicle id="32" depart="32.00">
        <route edges="DH1DI1 DI1DH1 DH1DG1 DG1DF1 DF1DE1 DE1DD1 DD1DC1 DC1DB1 DB1DA1 DA1CZ1 CZ1CY1 CY1CX1 CX1CW1 CW1CV1 CV1CU1 CU1CT1 CT1CS1 CS1CR1 CR1CQ1 CQ1CP1 CP1CO1 CO1CN1 CN1CM1 CM1CL1 CL1CK1 CK1CJ1 CJ1CI1 CI1CH1 CH1CG1 CG1CF1 CF1CE1 CE1CD1 CD1CC1 CC1CB1 CB1CA1 CA1BZ1 BZ1BY1 BY1BX1 BX1BW1 BW1BV1 BV1BU1 BU1BT1 BT1BS1 BS1BR1 BR1BQ1 BQ1BP1 BP1BO1 BO1BN1 BN1BM1 BM1BL1 BL1BK1 BK1BJ1 BJ1BI1 BI1BH1 BH1BG1 BG1BF1 BF1BE1 BE1BD1 BD1BC1 BC1BB1 BB1BA1 BA1AZ1 AZ1AY1 AY1AX1 AX1AW1 AW1AV1 AV1AU1 AU1AT1 AT1AS1 AS1AR1 AR1AQ1 AQ1AP1 AP1AO1 AO1AN1 AN1AM1 AM1AL1 AL1AK1 AK1AJ1 AJ1AI1 AI1AH1 AH1AG1 AG1AF1 AF1AE1 AE1AD1 AD1AC1 AC1AB1 AB1AB2 AB2AB3 AB3AB4 AB4AC4 AC4AD4 AD4AE4 AE4AF4 AF4AG4 AG4AH4 AH4AI4 AI4AJ4 AJ4AK4 AK4AL4 AL4AM4 AM4AN4 AN4AO4 AO4AP4 AP4AQ4 AQ4AR4 AR4AS4 AS4AT4 AT4AU4 AU4AV4 AV4AW4 AW4AX4 AX4AY4 AY4AZ4 AZ4BA4 BA4BB4 BB4BC4 BC4BD4 BD4BE4 BE4BF4 BF4BG4 BG4BH4 BH4BI4 BI4BJ4 BJ4BK4 BK4BL4 BL4BM4 BM4BN4 BN4BO4 BO4BP4 BP4BQ4 BQ4BR4 BR4BS4 BS4BT4 BT4BU4 BU4BV4 BV4BW4 BW4BX4 BX4BY4 BY4BZ4 BZ4CA4 CA4CB4 CB4CC4 CC4CD4 CD4CE4 CE4CF4 CF4CG4 CG4CH4 CH4CI4 CI4CJ4 CJ4CK4 CK4CL4 CL4CM4 CM4CN4 CN4CO4 CO4CP4 CP4CQ4 CQ4CR4 CR4CS4 CS4CT4 CT4CU4 CU4CV4 CV4CW4 CW4CX4 CX4CY4 CY4CZ4 CZ4DA4 DA4CZ4"/>
    </vehicle>
    <vehicle id="33" depart="33.00">
        <route edges="AY1AY2 AY2AX2 AX2AW2 AW2AV2 AV2AU2 AU2AT2 AT2AS2 AS2AR2 AR2AQ2 AQ2AP2 AP2AO2 AO2AN2 AN2AM2 AM2AL2 AL2AK2 AK2AJ2 AJ2AI2 AI2AH2 AH2AG2 AG2AF2 AF2AE2 AE2AE3 AE3AE4 AE4AD4"/>
    </vehicle>
    <vehicle id="34" depart="34.00">
        <route edges="BG5BG4 BG4BF4 BF4BE4 BE4BD4 BD4BC4 BC4BB4 BB4BA4 BA4AZ4 AZ4AY4 AY4AX4 AX4AW4 AW4AV4 AV4AU4 AU4AT4 AT4AS4 AS4AR4 AR4AQ4 AQ4AP4 AP4AO4 AO4AN4 AN4AM4 AM4AL4 AL4AK4 AK4AJ4 AJ4AI4 AI4AH4 AH4AG4 AG4AF4 AF4AE4 AE4AD4 AD4AC4 AC4AB4 AB4AB5 AB5AB6 AB6AB7 AB7AC7 AC7AD7 AD7AE7 AE7AF7 AF7AG7 AG7AH7 AH7AI7 AI7AJ7 AJ7AK7 AK7AL7 AL7AM7 AM7AN7 AN7AO7 AO7AP7 AP7AQ7 AQ7AR7 AR7AS7 AS7AT7 AT7AU7 AU7AV7 AV7AW7 AW7AX7 AX7AY7 AY7AZ7 AZ7BA7 BA7BB7 BB7BA7"/>
    </vehicle>
    <vehicle id="35" depart="35.00">
        <route edges="AW2AW3 AW3AW2 AW2AW1 AW1AX1 AX1AY1 AY1AZ1 AZ1BA1 BA1BB1 BB1BC1 BC1BD1 BD1BE1 BE1BF1 BF1BG1 BG1BH1 BH1BI1 BI1BJ1 BJ1BK1 BK1BL1 BL1BM1 BM1BN1 BN1BO1 BO1BP1 BP1BQ1 BQ1BR1 BR1BS1 BS1BT1 BT1BU1 BU1BV1 BV1BW1 BW1BX1 BX1BY1 BY1BZ1 BZ1CA1 CA1CB1 CB1CC1 CC1CD1 CD1CE1 CE1CF1 CF1CG1 CG1CH1 CH1CI1 CI1CJ1 CJ1CK1 CK1CL1 CL1CM1 CM1CN1 CN1CO1 CO1CP1 CP1CQ1 CQ1CR1 CR1CS1 CS1CT1 CT1CU1 CU1CV1 CV1CW1 CW1CX1 CX1CY1 CY1CZ1 CZ1DA1 DA1DB1 DB1DC1 DC1DD1 DD1DE1 DE1DF1 DF1DG1 DG1DH1 DH1DI1 DI1DJ1 DJ1DK1 DK1DL1 DL1DM1 DM1DN1 DN1DO1 DO1DP1 DP1DQ1 DQ1DR1 DR1DR2"/>
    </vehicle>
    <vehicle id="36" depart="36.00">
        <route edges="DK4DJ4 DJ4DI4 DI4DH4 DH4DG4 DG4DF4 DF4DE4 DE4DD4 DD4DC4 DC4DB4 DB4DA4 DA4CZ4 CZ4CY4 CY4CX4 CX4CW4 CW4CV4 CV4CU4 CU4CT4 CT4CS4 CS4CR4 CR4CQ4 CQ4CP4 CP4CO4 CO4CN4 CN4CM4 CM4CL4 CL4CK4 CK4CJ4 CJ4CI4 CI4CH4 CH4CG4 CG4CF4 CF4CE4 CE4CD4 CD4CC4 CC4CB4 CB4CA4 CA4BZ4 BZ4BY4 BY4BX4 BX4BW4 BW4BV4 BV4BU4 BU4BT4 BT4BS4 BS4BR4 BR4BQ4 BQ4BP4 BP4BO4 BO4BN4 BN4BM4 BM4BL4 BL4BK4 BK4BJ4 BJ4BI4 BI4BH4 BH4BG4 BG4BH4"/>
    </vehicle>
    <vehicle id="37" depart="37.00">
        <route edges="CO4CO3 CO3CN3 CN3CM3 CM3CL3 CL3CK3 CK3CJ3 CJ3CI3 CI3CH3 CH3CG3 CG3CF3 CF3CE3 CE3CD3 CD3CC3 CC3CB3 CB3CA3 CA3BZ3 BZ3BY3 BY3BX3 BX3BW3 BW3BV3 BV3BU3 BU3BT3 BT3BS3 BS3BR3 BR3BQ3 BQ3BP3 BP3BO3 BO3BO4 BO4BO5 BO5BO4"/>
    </vehicle>
    <vehicle id="38" depart="38.00">
        <route edges="DO2DO3 DO3DN3 DN3DM3 DM3DL3 DL3DK3 DK3DJ3 DJ3DI3 DI3DH3 DH3DG3 DG3DF3 DF3DE3 DE3DD3 DD3DC3 DC3DB3 DB3DA3 DA3CZ3 CZ3CY3 CY3CX3 CX3CW3 CW3CV3 CV3CU3 CU3CT3 CT3CS3 CS3CR3 CR3CQ3 CQ3CP3 CP3CO3 CO3CN3 CN3CM3 CM3CL3 CL3CK3 CK3CJ3 CJ3CI3 CI3CH3 CH3CG3 CG3CF3 CF3CE3 CE3CD3 CD3CC3 CC3CB3 CB3CA3 CA3BZ3 BZ3BY3 BY3BX3 BX3BW3 BW3BV3 BV3BU3 BU3BT3 BT3BS3 BS3BR3 BR3BQ3 BQ3BP3 BP3BO3 BO3BN3 BN3BM3 BM3BL3 BL3BK3 BK3BJ3 BJ3BI3 BI3BH3 BH3BG3 BG3BF3 BF3BE3 BE3BD3 BD3BC3 BC3BB3 BB3BA3 BA3AZ3 AZ3AY3 AY3AX3 AX3AW3 AW3AV3 AV3AU3 AU3AT3 AT3AS3 AS3AR3 AR3AQ3 AQ3AP3 AP3AO3 AO3AN3 AN3AM3 AM3AL3 AL3AK3 AK3AJ3 AJ3AI3 AI3AH3 AH3AG3 AG3AF3 AF3AE3 AE3AD3 AD3AC3 AC3AB3 AB3AB2 AB2AB1 AB1AB7 AB7AC7 AC7AD7 AD7AE7 AE7AF7 AF7AG7 AG7AH7 AH7AI7 AI7AJ7 AJ7AK7 AK7AL7 AL7AM7 AM7AN7 AN7AO7 AO7AP7 AP7AQ7 AQ7AR7 AR7AS7 AS7AT7 AT7AU7 AU7AV7 AV7AW7 AW7AX7 AX7AY7 AY7AZ7 AZ7BA7 BA7BB7 BB7BC7 BC7BD7 BD7BE7 BE7BF7 BF7BG7 BG7BH7 BH7BI7 BI7BJ7 BJ7BK7 BK7BL7 BL7BM7 BM7BN7 BN7BO7 BO7BP7 BP7BQ7 BQ7BR7 BR7BS7 BS7BT7 BT7BU7 BU7BU1"/>
    </vehicle>
    <vehicle id="39" depart="39.00">
        <route edges="BB5BA5 BA5AZ5 AZ5AZ6 AZ6AZ7"/>
    </vehicle>
    <vehicle id="40" depart="40.00">
        <route edges="CF1CF7 CF7CE7 CE7CD7 CD7CC7 CC7CB7 CB7CA7 CA7BZ7 BZ7BY7 BY7BX7 BX7BW7 BW7BV7 BV7BU7 BU7BT7 BT7BS7 BS7BR7 BR7BQ7 BQ7BP7 BP7BO7 BO7BN7 BN7BM7 BM7BL7 BL7BK7 BK7BJ7 BJ7BI7 BI7BH7 BH7BG7 BG7BF7 BF7BE7 BE7BD7 BD7BC7 BC7BB7 BB7BA7 BA7AZ7 AZ7AY7 AY7AX7 AX7AW7 AW7AV7 AV7AU7 AU7AT7 AT7AS7 AS7AR7 AR7AQ7 AQ7AP7 AP7AO7 AO7AN7 AN7AM7 AM7AL7 AL7AK7 AK7AJ7 AJ7AI7 AI7AH7 AH7AG7 AG7AF7 AF7AE7 AE7AD7 AD7AC7 AC7AB7 AB7AB1 AB1AB2 AB2AB3 AB3AC3 AC3AD3 AD3AE3 AE3AF3 AF3AG3 AG3AH3 AH3AI3 AI3AJ3 AJ3AK3 AK3AL3 AL3AM3 AM3AN3 AN3AO3 AO3AP3 AP3AQ3 AQ3AR3 AR3AS3 AS3AT3 AT3AU3 AU3AV3 AV3AW3 AW3AX3 AX3AY3 AY3AZ3 AZ3BA3 BA3BB3 BB3BB4"/>
    </vehicle>
    <vehicle id="41" depart="41.00">
        <route edges="CH3CI3 CI3CI4 CI4CI5 CI5CJ5 CJ5CK5 CK5CL5 CL5CM5 CM5CN5 CN5CO5 CO5CP5 CP5CQ5 CQ5CR5 CR5CS5 CS5CT5 CT5CU5 CU5CV5 CV5CW5 CW5CX5 CX5CY5 CY5CZ5 CZ5DA5 DA5DB5 DB5DC5 DC5DD5 DD5DE5 DE5DF5 DF5DG5 DG5DH5 DH5DI5 DI5DJ5 DJ5DK5 DK5DL5 DL5DM5 DM5DL5"/>
    </vehicle>
    <vehicle id="42" depart="42.00">
        <route edges="BO7BP7 BP7BO7 BO7BN7 BN7BM7 BM7BL7 BL7BK7 BK7BJ7 BJ7BI7 BI7BH7 BH7BG7 BG7BF7 BF7BE7 BE7BD7 BD7BC7 BC7BB7 BB7BA7 BA7AZ7 AZ7AY7 AY7AX7 AX7AX1 AX1AX7"/>
    </vehicle>
    <vehicle id="43" depart="43.00">
        <route edges="DW5DW6 DW6DV6 DV6DU6 DU6DT6 DT6DS6 DS6DR6 DR6DQ6 DQ6DP6 DP6DO6 DO6DN6 DN6DM6 DM6DL6 DL6DK6 DK6DJ6 DJ6DI6 DI6DH6 DH6DG6 DG6DF6 DF6DE6 DE6DD6 DD6DC6 DC6DB6 DB6DA6 DA6CZ6 CZ6CY6 CY6CX6 CX6CW6 CW6CV6 CV6CU6 CU6CT6 CT6CS6 CS6CR6 CR6CQ6 CQ6CP6 CP6CO6 CO6CN6 CN6CM6 CM6CL6 CL6CK6 CK6CJ6 CJ6CI6 CI6CH6 CH6CG6 CG6CF6 CF6CE6 CE6CD6 CD6CC6 CC6CB6 CB6CA6 CA6BZ6 BZ6BZ7 BZ7BZ6"/>
    </vehicle>
    <vehicle id="44" depart="44.00">
        <route edges="AK3AJ3 AJ3AI3 AI3AH3 AH3AG3 AG3AF3 AF3AE3 AE3AD3 AD3AC3 AC3AB3 AB3AB2 AB2AB1 AB1AB7 AB7AC7 AC7AD7 AD7AE7 AE7AF7 AF7AF6"/>
    </vehicle>
    <vehicle id="45" depart="45.00">
        <route edges="AM2AL2 AL2AK2 AK2AJ2 AJ2AI2 AI2AH2 AH2AG2 AG2AF2 AF2AE2 AE2AD2 AD2AC2 AC2AB2 AB2AB3 AB3AB4 AB4AB5 AB5AC5 AC5AD5 AD5AE5 AE5AF5 AF5AG5 AG5AH5 AH5AI5 AI5AJ5 AJ5AK5 AK5AL5 AL5AM5 AM5AN5 AN5AO5 AO5AP5 AP5AQ5 AQ5AR5 AR5AS5 AS5AT5 AT5AU5 AU5AV5 AV5AW5 AW5AX5 AX5AY5 AY5AZ5 AZ5BA5 BA5BB5 BB5BC5 BC5BD5 BD5BE5 BE5BF5 BF5BG5 BG5BH5 BH5BI5 BI5BJ5 BJ5BK5 BK5BL5 BL5BM5 BM5BN5 BN5BO5 BO5BP5 BP5BQ5 BQ5BR5 BR5BS5 BS5BT5 BT5BU5 BU5BV5 BV5BW5 BW5BX5 BX5BY5 BY5BZ5 BZ5CA5 CA5CB5 CB5CC5 CC5CD5 CD5CE5 CE5CF5 CF5CG5 CG5CH5 CH5CI5 CI5CJ5 CJ5CK5 CK5CL5 CL5CM5"/>
    </vehicle>
    <vehicle id="46" depart="46.00">
        <route edges="DC1DC2 DC2DB2 DB2DA2 DA2CZ2 CZ2CY2 CY2CX2 CX2CW2 CW2CV2 CV2CU2 CU2CT2 CT2CS2 CS2CR2 CR2CQ2 CQ2CP2 CP2CO2 CO2CN2 CN2CM2 CM2CL2 CL2CK2 CK2CJ2 CJ2CI2 CI2CH2 CH2CG2 CG2CF2 CF2CE2 CE2CD2 CD2CC2 CC2CB2 CB2CA2 CA2BZ2 BZ2BY2 BY2BX2 BX2BW2 BW2BV2 BV2BU2 BU2BT2 BT2BS2 BS2BR2 BR2BS2"/>
    </vehicle>
    <vehicle id="47" depart="47.00">
        <route edges="AH4AI4 AI4AI3 AI3AI2 AI2AJ2 AJ2AK2 AK2AL2 AL2AM2 AM2AN2 AN2AO2 AO2AP2 AP2AQ2 AQ2AR2 AR2AS2 AS2AT2 AT2AU2 AU2AV2 AV2AW2 AW2AX2 AX2AY2 AY2AZ2 AZ2BA2 BA2BB2 BB2BC2 BC2BD2 BD2BE2 BE2BF2 BF2BG2 BG2BH2 BH2BI2 BI2BJ2 BJ2BK2 BK2BL2 BL2BM2 BM2BN2 BN2BN3"/>
    </vehicle>
    <vehicle id="48" depart="48.00">
        <route edges="DW4DW3 DW3DV3 DV3DU3 DU3DT3 DT3DS3 DS3DR3 DR3DQ3 DQ3DP3 DP3DO3 DO3DN3 DN3DM3 DM3DL3 DL3DK3 DK3DJ3 DJ3DI3 DI3DH3 DH3DG3 DG3DF3 DF3DE3 DE3DD3 DD3DC3 DC3DB3 DB3DA3 DA3CZ3 CZ3CY3 CY3CX3 CX3CW3 CW3CV3 CV3CU3 CU3CT3 CT3CS3 CS3CR3 CR3CQ3 CQ3CP3 CP3CO3 CO3CN3 CN3CM3 CM3CL3 CL3CK3 CK3CJ3 CJ3CI3 CI3CH3 CH3CG3 CG3CF3 CF3CE3 CE3CD3 CD3CC3 CC3CB3 CB3CA3 CA3BZ3 BZ3BY3 BY3BX3 BX3BW3 BW3BV3 BV3BU3 BU3BT3 BT3BS3 BS3BR3 BR3BQ3 BQ3BP3 BP3BO3 BO3BN3 BN3BM3 BM3BL3 BL3BK3 BK3BJ3 BJ3BI3 BI3BH3 BH3BG3 BG3BF3 BF3BE3 BE3BD3 BD3BC3 BC3BB3 BB3BA3 BA3AZ3 AZ3AY3 AY3AX3 AX3AW3 AW3AV3 AV3AU3 AU3AT3 AT3AS3 AS3AR3 AR3AQ3 AQ3AP3 AP3AO3 AO3AN3 AN3AM3 AM3AL3 AL3AK3 AK3AJ3 AJ3AI3 AI3AH3 AH3AG3 AG3AF3 AF3AE3 AE3AD3 AD3AC3 AC3AB3 AB3AB2 AB2AB1 AB1AB7 AB7AC7 AC7AD7 AD7AE7 AE7AF7 AF7AG7 AG7AH7 AH7AI7 AI7AJ7 AJ7AK7 AK7AL7 AL7AM7 AM7AN7 AN7AO7 AO7AP7 AP7AQ7 AQ7AR7 AR7AS7 AS7AT7 AT7AU7 AU7AV7 AV7AW7 AW7AX7 AX7AY7 AY7AZ7 AZ7BA7 BA7BB7 BB7BC7 BC7BD7 BD7BE7 BE7BF7 BF7BG7 BG7BH7 BH7BI7 BI7BJ7 BJ7BK7 BK7BL7 BL7BM7 BM7BN7 BN7BO7 BO7BP7 BP7BQ7 BQ7BR7 BR7BS7 BS7BT7 BT7BU7 BU7BV7 BV7BW7 BW7BX7 BX7BY7 BY7BZ7 BZ7CA7 CA7CB7 CB7CB1"/>
    </vehicle>
    <vehicle id="49" depart="49.00">
        <route edges="DT7DS7 DS7DR7 DR7DQ7 DQ7DP7 DP7DO7 DO7DN7 DN7DM7 DM7DL7 DL7DK7 DK7DJ7 DJ7DI7 DI7DI1"/>
    </vehicle>
    <vehicle id="50" depart="50.00">
        <route edges="AC3AC4 AC4AB4 AB4AB5 AB5AB6 AB6AB7 AB7AC7 AC7AD7 AD7AE7 AE7AF7 AF7AG7 AG7AH7 AH7AI7 AI7AJ7 AJ7AK7 AK7AL7 AL7AM7 AM7AN7 AN7AO7 AO7AP7 AP7AQ7 AQ7AR7 AR7AS7 AS7AT7 AT7AU7 AU7AV7 AV7AW7 AW7AX7 AX7AY7 AY7AZ7 AZ7BA7 BA7BB7 BB7BC7 BC7BD7 BD7BE7 BE7BF7 BF7BG7 BG7BH7 BH7BI7 BI7BJ7 BJ7BK7 BK7BL7 BL7BM7 BM7BN7 BN7BO7 BO7BP7 BP7BQ7 BQ7BR7 BR7BS7 BS7BT7 BT7BU7 BU7BV7 BV7BW7 BW7BX7 BX7BY7 BY7BZ7 BZ7CA7 CA7CB7 CB7CC7 CC7CD7 CD7CE7 CE7CF7 CF7CG7 CG7CH7 CH7CI7 CI7CJ7 CJ7CK7 CK7CL7 CL7CM7 CM7CN7 CN7CO7 CO7CP7 CP7CQ7 CQ7CR7 CR7CS7 CS7CT7 CT7CU7 CU7CU6"/>
    </vehicle>
    <vehicle id="51" depart="51.00">
        <route edges="CR1CR7 CR7CQ7 CQ7CP7 CP7CO7 CO7CN7 CN7CM7 CM7CL7 CL7CK7 CK7CJ7 CJ7CI7 CI7CH7 CH7CG7 CG7CF7 CF7CE7 CE7CD7 CD7CC7 CC7CC6 CC6CC5 CC5CC6"/>
    </vehicle>
    <vehicle id="52" depart="52.00">
        <route edges="BB6BB7 BB7BB1 BB1BC1 BC1BD1 BD1BE1 BE1BF1 BF1BG1 BG1BH1 BH1BI1 BI1BJ1 BJ1BK1 BK1BL1 BL1BM1 BM1BN1 BN1BO1 BO1BP1 BP1BQ1 BQ1BR1 BR1BS1 BS1BT1 BT1BU1 BU1BV1 BV1BW1 BW1BX1 BX1BY1 BY1BZ1 BZ1CA1 CA1CB1 CB1CC1 CC1CD1 CD1CE1 CE1CF1 CF1CG1 CG1CH1 CH1CI1 CI1CJ1 CJ1CK1 CK1CL1 CL1CM1 CM1CN1 CN1CM1"/>
    </vehicle>
    <vehicle id="53" depart="53.00">
        <route edges="AM3AM2 AM2AM3 AM3AM4 AM4AN4 AN4AO4 AO4AP4 AP4AQ4 AQ4AR4 AR4AS4 AS4AT4 AT4AU4 AU4AV4 AV4AW4 AW4AX4 AX4AY4 AY4AZ4 AZ4BA4 BA4BB4 BB4BC4 BC4BD4 BD4BE4 BE4BF4 BF4BG4 BG4BH4 BH4BI4 BI4BJ4 BJ4BK4 BK4BL4 BL4BM4 BM4BN4 BN4BO4 BO4BP4 BP4BQ4 BQ4BR4 BR4BS4 BS4BS5"/>
    </vehicle>
    <vehicle id="54" depart="54.00">
        <route edges="BU3BV3 BV3BV2 BV2BW2 BW2BX2 BX2BY2 BY2BZ2 BZ2CA2 CA2CB2 CB2CC2 CC2CD2 CD2CE2 CE2CF2 CF2CG2 CG2CH2 CH2CI2 CI2CJ2 CJ2CK2 CK2CL2 CL2CM2 CM2CN2 CN2CO2 CO2CP2 CP2CQ2 CQ2CR2 CR2CS2 CS2CT2 CT2CU2 CU2CV2 CV2CW2 CW2CX2 CX2CY2 CY2CZ2 CZ2DA2 DA2DB2 DB2DC2 DC2DD2 DD2DE2 DE2DF2 DF2DG2 DG2DH2 DH2DI2 DI2DJ2 DJ2DK2 DK2DL2 DL2DM2 DM2DN2 DN2DO2 DO2DP2 DP2DQ2 DQ2DR2 DR2DS2 DS2DR2"/>
    </vehicle>
    <vehicle id="55" depart="55.00">
        <route edges="DK3DL3 DL3DK3 DK3DJ3 DJ3DI3 DI3DH3 DH3DG3 DG3DF3 DF3DE3 DE3DD3 DD3DC3 DC3DB3 DB3DA3 DA3CZ3 CZ3CY3 CY3CX3 CX3CW3 CW3CV3 CV3CU3 CU3CT3 CT3CS3 CS3CR3 CR3CQ3 CQ3CP3 CP3CO3 CO3CN3 CN3CM3 CM3CL3 CL3CK3 CK3CJ3 CJ3CI3 CI3CH3 CH3CG3 CG3CF3 CF3CE3 CE3CD3 CD3CC3 CC3CB3 CB3CA3 CA3BZ3 BZ3BY3 BY3BX3 BX3BW3 BW3BV3 BV3BU3 BU3BT3 BT3BS3 BS3BR3 BR3BQ3 BQ3BP3 BP3BO3 BO3BN3 BN3BM3 BM3BL3 BL3BK3 BK3BJ3 BJ3BI3 BI3BH3 BH3BG3 BG3BF3 BF3BE3 BE3BD3 BD3BC3 BC3BB3 BB3BB4 BB4BA4"/>
    </vehicle>
    <vehicle id="56" depart="56.00">
        <route edges="BZ1BZ2 BZ2BY2 BY2BX2 BX2BW2 BW2BV2 BV2BU2 BU2BT2 BT2BS2 BS2BR2 BR2BQ2 BQ2BP2 BP2BO2 BO2BN2 BN2BM2 BM2BL2 BL2BK2 BK2BJ2 BJ2BI2 BI2BH2 BH2BG2 BG2BF2 BF2BE2 BE2BD2 BD2BC2 BC2BB2 BB2BA2 BA2AZ2 AZ2AY2 AY2AX2 AX2AW2 AW2AV2 AV2AU2 AU2AT2 AT2AT1 AT1AS1"/>
    </vehicle>
    <vehicle id="57" depart="57.00">
        <route edges="DO1DO2 DO2DN2 DN2DM2 DM2DL2 DL2DK2 DK2DJ2 DJ2DJ1 DJ1DJ7 DJ7DI7"/>
    </vehicle>
    <vehicle id="58" depart="58.00">
        <route edges="BE7BE6 BE6BF6 BF6BG6 BG6BH6 BH6BI6 BI6BJ6 BJ6BK6 BK6BL6 BL6BM6 BM6BN6 BN6BO6 BO6BP6 BP6BQ6 BQ6BR6 BR6BS6 BS6BT6 BT6BU6 BU6BV6 BV6BW6 BW6BX6 BX6BY6 BY6BZ6 BZ6CA6 CA6CB6 CB6CC6 CC6CD6 CD6CE6 CE6CF6 CF6CG6 CG6CH6 CH6CI6 CI6CJ6 CJ6CK6 CK6CL6 CL6CM6 CM6CN6"/>
    </vehicle>
    <vehicle id="59" depart="59.00">
        <route edges="CJ6CK6 CK6CJ6 CJ6CI6 CI6CH6 CH6CG6 CG6CF6 CF6CE6 CE6CD6 CD6CC6 CC6CB6 CB6CA6 CA6BZ6 BZ6BY6 BY6BX6 BX6BW6 BW6BV6 BV6BU6 BU6BT6 BT6BS6 BS6BR6 BR6BQ6 BQ6BP6 BP6BO6 BO6BN6 BN6BM6 BM6BL6 BL6BK6 BK6BJ6 BJ6BI6 BI6BH6 BH6BG6 BG6BF6 BF6BE6 BE6BD6 BD6BC6 BC6BB6 BB6BA6 BA6AZ6 AZ6AY6 AY6AX6 AX6AW6 AW6AV6 AV6AU6 AU6AT6 AT6AS6 AS6AR6 AR6AQ6 AQ6AQ5 AQ5AQ4 AQ4AP4"/>
    </vehicle>
    <vehicle id="60" depart="60.00">
        <route edges="CZ1DA1 DA1CZ1 CZ1CY1 CY1CX1 CX1CW1 CW1CV1 CV1CU1 CU1CT1 CT1CS1 CS1CR1 CR1CQ1 CQ1CP1 CP1CO1 CO1CN1 CN1CM1 CM1CL1 CL1CK1 CK1CJ1 CJ1CI1 CI1CH1 CH1CG1 CG1CF1 CF1CE1 CE1CD1 CD1CC1 CC1CC7 CC7CC1"/>
    </vehicle>
    <vehicle id="61" depart="61.00">
        <route edges="DA6CZ6 CZ6CY6 CY6CX6 CX6CW6 CW6CV6 CV6CU6 CU6CT6 CT6CS6 CS6CR6 CR6CQ6 CQ6CP6 CP6CO6 CO6CN6 CN6CM6 CM6CL6 CL6CK6 CK6CJ6 CJ6CI6 CI6CH6 CH6CG6 CG6CF6 CF6CE6 CE6CD6 CD6CC6 CC6CC7 CC7CC1 CC1CB1"/>
    </vehicle>
    <vehicle id="62" depart="62.00">
        <route edges="AB1AB7 AB7AB6 AB6AB5 AB5AB4 AB4AC4 AC4AD4 AD4AE4 AE4AF4 AF4AG4 AG4AH4 AH4AI4 AI4AJ4 AJ4AK4 AK4AL4 AL4AM4 AM4AN4 AN4AO4 AO4AP4 AP4AQ4 AQ4AR4 AR4AS4 AS4AT4 AT4AU4 AU4AV4 AV4AW4 AW4AX4 AX4AY4 AY4AZ4 AZ4BA4 BA4BB4 BB4BC4 BC4BD4 BD4BE4 BE4BF4 BF4BG4 BG4BH4 BH4BH5"/>
    </vehicle>
    <vehicle id="63" depart="63.00">