<?xml version="1.0" encoding="UTF-8"?>

<!-- generated on 2023-10-26 16:19:39 by Eclipse SUMO netedit Version v1_18_0+2188-429ca5c2ee0
-->

<routes xmlns:xsi="http://www.w3.org/2001/XMLSchema-instance" xsi:noNamespaceSchemaLocation="http://sumo.dlr.de/xsd/routes_file.xsd">
    <!-- Vehicles, persons and containers (sorted by depart) -->
    <trip id="t_0" depart="100.00" from="E0" to="E14" via="E1 E2 E3 E4 E5 E6 E7 E8 E9 E10 E11 E12 E13"/>
</routes>
