<?xml version="1.0" encoding="UTF-8"?>

<!-- generated on 2023-10-26 16:19:30 by Eclipse SUMO netedit Version v1_18_0+2188-429ca5c2ee0
<configuration xmlns:xsi="http://www.w3.org/2001/XMLSchema-instance" xsi:noNamespaceSchemaLocation="http://sumo.dlr.de/xsd/neteditConfiguration.xsd">

    <input>
        <route-files value="/home/filippo/tesim/Parallel-Sumo/assets/testMultipartRoutes.rou.xml"/>
        <sumo-net-file value="/home/filippo/tesim/Parallel-Sumo/assets/testMultipartRoutes.net.xml"/>
    </input>

    <output>
        <output-file value="/home/filippo/tesim/Parallel-Sumo/assets/testMultipartRoutes.net.xml"/>
    </output>

    <processing>
        <geometry.min-radius.fix.railways value="false"/>
        <geometry.max-grade.fix value="false"/>
        <offset.disable-normalization value="true"/>
        <lefthand value="0"/>
    </processing>

    <junctions>
        <no-turnarounds value="true"/>
        <junctions.corner-detail value="5"/>
        <junctions.limit-turn-speed value="5.50"/>
        <rectangular-lane-cut value="0"/>
    </junctions>

    <pedestrian>
        <walkingareas value="0"/>
    </pedestrian>

</configuration>
-->

<net version="1.16" junctionCornerDetail="5" limitTurnSpeed="5.50" xmlns:xsi="http://www.w3.org/2001/XMLSchema-instance" xsi:noNamespaceSchemaLocation="http://sumo.dlr.de/xsd/net_file.xsd">

    <location netOffset="0.00,0.00" convBoundary="-105.39,-94.91,493.20,123.47" origBoundary="-10000000000.00,-10000000000.00,10000000000.00,10000000000.00" projParameter="!"/>

    <edge id=":J1_0" function="internal">
        <lane id=":J1_0_0" index="0" speed="3.91" length="2.43" shape="-90.65,113.99 -90.52,114.64 -90.21,115.10 -89.74,115.39 -89.09,115.49"/>
    </edge>
    <edge id=":J10_0" function="internal">
        <lane id=":J10_0_0" index="0" speed="13.89" length="0.23" shape="325.52,-88.72 325.29,-88.72"/>
    </edge>
    <edge id=":J11_0" function="internal">
        <lane id=":J11_0_0" index="0" speed="13.89" length="0.10" shape="257.85,-86.88 257.76,-86.88"/>
    </edge>
    <edge id=":J12_0" function="internal">
        <lane id=":J12_0_0" index="0" speed="13.89" length="0.30" shape="171.47,-89.64 171.18,-89.65"/>
    </edge>
    <edge id=":J13_0" function="internal">
        <lane id=":J13_0_0" index="0" speed="13.89" length="0.12" shape="73.05,-93.31 72.93,-93.31"/>
    </edge>
    <edge id=":J14_0" function="internal">
        <lane id=":J14_0_0" index="0" speed="13.89" length="0.10" shape="-33.61,-89.18 -33.71,-89.18"/>
    </edge>
    <edge id=":J15_0" function="internal">
        <lane id=":J15_0_0" index="0" speed="3.90" length="2.75" shape="-101.93,-90.92 -102.69,-90.83 -103.22,-90.52 -103.51,-89.98 -103.57,-89.22"/>
    </edge>
    <edge id=":J2_0" function="internal">
        <lane id=":J2_0_0" index="0" speed="13.89" length="0.30" shape="39.32,118.19 39.62,118.20"/>
    </edge>
    <edge id=":J3_0" function="internal">
        <lane id=":J3_0_0" index="0" speed="13.89" length="0.20" shape="159.33,121.87 159.54,121.87"/>
    </edge>
    <edge id=":J4_0" function="internal">
        <lane id=":J4_0_0" index="0" speed="13.89" length="0.28" shape="265.94,120.49 266.22,120.49"/>
    </edge>
    <edge id=":J5_0" function="internal">
        <lane id=":J5_0_0" index="0" speed="13.89" length="0.57" shape="377.70,121.41 377.87,121.40 377.98,121.39 378.10,121.37 378.26,121.31"/>
    </edge>
    <edge id=":J6_0" function="internal">
        <lane id=":J6_0_0" index="0" speed="4.33" length="1.12" shape="454.33,93.85 454.64,93.73 454.84,93.61 454.99,93.43 455.17,93.16"/>
    </edge>
    <edge id=":J7_0" function="internal">
        <lane id=":J7_0_0" index="0" speed="4.41" length="1.04" shape="491.28,32.08 491.43,31.81 491.51,31.61 491.52,31.40 491.50,31.09"/>
    </edge>
    <edge id=":J8_0" function="internal">
        <lane id=":J8_0_0" index="0" speed="4.14" length="1.35" shape="483.94,-39.98 483.87,-40.32 483.74,-40.62 483.54,-40.89 483.28,-41.11"/>
    </edge>
    <edge id=":J9_0" function="internal">
        <lane id=":J9_0_0" index="0" speed="13.89" length="0.99" shape="418.15,-87.51 417.91,-87.68 417.73,-87.76 417.53,-87.80 417.24,-87.81"/>
    </edge>

    <edge id="E0" from="J1" to="J2" priority="-1">
        <lane id="E0_0" index="0" speed="13.89" length="128.44" shape="-89.09,115.49 39.32,118.19"/>
    </edge>
    <edge id="E1" from="J2" to="J3" priority="-1">
        <lane id="E1_0" index="0" speed="13.89" length="119.77" shape="39.62,118.20 159.33,121.87"/>
    </edge>
    <edge id="E10" from="J11" to="J12" priority="-1">
        <lane id="E10_0" index="0" speed="13.89" length="86.33" shape="257.76,-86.88 171.47,-89.64"/>
    </edge>
    <edge id="E11" from="J12" to="J13" priority="-1">
        <lane id="E11_0" index="0" speed="13.89" length="98.19" shape="171.18,-89.65 73.05,-93.31"/>
    </edge>
    <edge id="E12" from="J13" to="J14" priority="-1">
        <lane id="E12_0" index="0" speed="13.89" length="106.62" shape="72.93,-93.31 -33.61,-89.18"/>
    </edge>
    <edge id="E13" from="J14" to="J15" priority="-1">
        <lane id="E13_0" index="0" speed="13.89" length="68.25" shape="-33.71,-89.18 -101.93,-90.92"/>
    </edge>
    <edge id="E14" from="J15" to="J1" priority="-1">
        <lane id="E14_0" index="0" speed="13.89" length="203.62" shape="-103.57,-89.22 -90.65,113.99"/>
    </edge>
    <edge id="E2" from="J3" to="J4" priority="-1">
        <lane id="E2_0" index="0" speed="13.89" length="106.41" shape="159.54,121.87 265.94,120.49"/>
    </edge>
    <edge id="E3" from="J4" to="J5" priority="-1">
        <lane id="E3_0" index="0" speed="13.89" length="111.49" shape="266.22,120.49 377.70,121.41"/>
    </edge>
    <edge id="E4" from="J5" to="J6" priority="-1">
        <lane id="E4_0" index="0" speed="13.89" length="80.88" shape="378.26,121.31 454.33,93.85"/>
    </edge>
    <edge id="E5" from="J6" to="J7" priority="-1">
        <lane id="E5_0" index="0" speed="13.89" length="70.96" shape="455.17,93.16 491.28,32.08"/>
    </edge>
    <edge id="E6" from="J7" to="J8" priority="-1">
        <lane id="E6_0" index="0" speed="13.89" length="71.47" shape="491.50,31.09 483.94,-39.98"/>
    </edge>
    <edge id="E7" from="J8" to="J9" priority="-1">
        <lane id="E7_0" index="0" speed="13.89" length="79.97" shape="483.28,-41.11 418.15,-87.51"/>
    </edge>
    <edge id="E8" from="J9" to="J10" priority="-1">
        <lane id="E8_0" index="0" speed="13.89" length="91.72" shape="417.24,-87.81 325.52,-88.72"/>
    </edge>
    <edge id="E9" from="J10" to="J11" priority="-1">
        <lane id="E9_0" index="0" speed="13.89" length="67.46" shape="325.29,-88.72 257.85,-86.88"/>
    </edge>

    <junction id="J1" type="priority" x="-92.06" y="117.03" incLanes="E14_0" intLanes=":J1_0_0" shape="-89.12,117.09 -89.05,113.89 -92.25,114.10 -91.82,115.73 -91.37,116.31 -90.77,116.73 -90.02,116.99">
        <request index="0" response="0" foes="0" cont="0"/>
    </junction>
    <junction id="J10" type="priority" x="325.39" y="-90.32" incLanes="E8_0" intLanes=":J10_0_0" shape="325.50,-87.12 325.54,-90.32 325.24,-90.32 325.33,-87.12">
        <request index="0" response="0" foes="0" cont="0"/>
    </junction>
    <junction id="J11" type="priority" x="257.81" y="-88.48" incLanes="E9_0" intLanes=":J11_0_0" shape="257.90,-85.28 257.81,-88.48 257.71,-85.28">
        <request index="0" response="0" foes="0" cont="0"/>
    </junction>
    <junction id="J12" type="priority" x="171.38" y="-91.24" incLanes="E10_0" intLanes=":J12_0_0" shape="171.42,-88.04 171.52,-91.24 171.24,-91.25 171.12,-88.05">
        <request index="0" response="0" foes="0" cont="0"/>
    </junction>
    <junction id="J13" type="priority" x="72.99" y="-94.91" incLanes="E11_0" intLanes=":J13_0_0" shape="72.99,-91.71 73.11,-94.91 72.87,-94.91">
        <request index="0" response="0" foes="0" cont="0"/>
    </junction>
    <junction id="J14" type="priority" x="-33.67" y="-90.78" incLanes="E12_0" intLanes=":J14_0_0" shape="-33.55,-87.58 -33.67,-90.78 -33.75,-87.58">
        <request index="0" response="0" foes="0" cont="0"/>
    </junction>
    <junction id="J15" type="priority" x="-105.39" y="-92.61" incLanes="E13_0" intLanes=":J15_0_0" shape="-105.17,-89.12 -101.97,-89.32 -101.89,-92.52 -103.81,-92.18 -104.46,-91.71 -104.90,-91.05 -105.14,-90.18">
        <request index="0" response="0" foes="0" cont="0"/>
    </junction>
    <junction id="J2" type="priority" x="39.43" y="119.79" incLanes="E0_0" intLanes=":J2_0_0" shape="39.57,119.79 39.67,116.60 39.36,116.59 39.29,119.79">
        <request index="0" response="0" foes="0" cont="0"/>
    </junction>
    <junction id="J3" type="priority" x="159.42" y="123.47" incLanes="E1_0" intLanes=":J3_0_0" shape="159.56,123.47 159.52,120.27 159.38,120.27 159.28,123.47">
        <request index="0" response="0" foes="0" cont="0"/>
    </junction>
    <junction id="J4" type="priority" x="266.08" y="122.09" incLanes="E2_0" intLanes=":J4_0_0" shape="266.20,122.09 266.23,118.89 265.92,118.89 265.96,122.09">
        <request index="0" response="0" foes="0" cont="0"/>
    </junction>
    <junction id="J5" type="priority" x="378.26" y="123.01" incLanes="E3_0" intLanes=":J5_0_0" shape="378.80,122.82 377.71,119.81 377.69,123.01 378.11,123.00 378.26,122.98 378.40,122.95 378.57,122.90">
        <request index="0" response="0" foes="0" cont="0"/>
    </junction>
    <junction id="J6" type="priority" x="455.96" y="94.96" incLanes="E4_0" intLanes=":J6_0_0" shape="456.55,93.97 453.79,92.34 454.88,95.35 455.64,95.04 455.89,94.87 456.09,94.66 456.30,94.37">
        <request index="0" response="0" foes="0" cont="0"/>
    </junction>
    <junction id="J7" type="priority" x="493.20" y="31.98" incLanes="E5_0" intLanes=":J7_0_0" shape="493.09,30.93 489.91,31.26 492.66,32.89 493.02,32.22 493.11,31.96 493.14,31.69 493.13,31.36">
        <request index="0" response="0" foes="0" cont="0"/>
    </junction>
    <junction id="J8" type="priority" x="485.38" y="-41.58" incLanes="E6_0" intLanes=":J8_0_0" shape="482.35,-39.81 485.53,-40.15 485.32,-41.04 485.12,-41.43 484.88,-41.79 484.57,-42.12 484.21,-42.42">
        <request index="0" response="0" foes="0" cont="0"/>
    </junction>
    <junction id="J9" type="priority" x="418.26" y="-89.40" incLanes="E7_0" intLanes=":J9_0_0" shape="417.22,-86.21 419.08,-88.82 418.47,-89.22 418.23,-89.32 417.98,-89.38 417.67,-89.40 417.25,-89.41">
        <request index="0" response="0" foes="0" cont="0"/>
    </junction>

    <connection from="E0" to="E1" fromLane="0" toLane="0" via=":J2_0_0" dir="s" state="M"/>
    <connection from="E1" to="E2" fromLane="0" toLane="0" via=":J3_0_0" dir="s" state="M"/>
    <connection from="E10" to="E11" fromLane="0" toLane="0" via=":J12_0_0" dir="s" state="M"/>
    <connection from="E11" to="E12" fromLane="0" toLane="0" via=":J13_0_0" dir="s" state="M"/>
    <connection from="E12" to="E13" fromLane="0" toLane="0" via=":J14_0_0" dir="s" state="M"/>
    <connection from="E13" to="E14" fromLane="0" toLane="0" via=":J15_0_0" dir="r" state="M"/>
    <connection from="E14" to="E0" fromLane="0" toLane="0" via=":J1_0_0" dir="r" state="M"/>
    <connection from="E2" to="E3" fromLane="0" toLane="0" via=":J4_0_0" dir="s" state="M"/>
    <connection from="E3" to="E4" fromLane="0" toLane="0" via=":J5_0_0" dir="s" state="M"/>
    <connection from="E4" to="E5" fromLane="0" toLane="0" via=":J6_0_0" dir="s" state="M"/>
    <connection from="E5" to="E6" fromLane="0" toLane="0" via=":J7_0_0" dir="s" state="M"/>
    <connection from="E6" to="E7" fromLane="0" toLane="0" via=":J8_0_0" dir="r" state="M"/>
    <connection from="E7" to="E8" fromLane="0" toLane="0" via=":J9_0_0" dir="s" state="M"/>
    <connection from="E8" to="E9" fromLane="0" toLane="0" via=":J10_0_0" dir="s" state="M"/>
    <connection from="E9" to="E10" fromLane="0" toLane="0" via=":J11_0_0" dir="s" state="M"/>

    <connection from=":J1_0" to="E0" fromLane="0" toLane="0" dir="r" state="M"/>
    <connection from=":J10_0" to="E9" fromLane="0" toLane="0" dir="s" state="M"/>
    <connection from=":J11_0" to="E10" fromLane="0" toLane="0" dir="s" state="M"/>
    <connection from=":J12_0" to="E11" fromLane="0" toLane="0" dir="s" state="M"/>
    <connection from=":J13_0" to="E12" fromLane="0" toLane="0" dir="s" state="M"/>
    <connection from=":J14_0" to="E13" fromLane="0" toLane="0" dir="s" state="M"/>
    <connection from=":J15_0" to="E14" fromLane="0" toLane="0" dir="r" state="M"/>
    <connection from=":J2_0" to="E1" fromLane="0" toLane="0" dir="s" state="M"/>
    <connection from=":J3_0" to="E2" fromLane="0" toLane="0" dir="s" state="M"/>
    <connection from=":J4_0" to="E3" fromLane="0" toLane="0" dir="s" state="M"/>
    <connection from=":J5_0" to="E4" fromLane="0" toLane="0" dir="s" state="M"/>
    <connection from=":J6_0" to="E5" fromLane="0" toLane="0" dir="s" state="M"/>
    <connection from=":J7_0" to="E6" fromLane="0" toLane="0" dir="s" state="M"/>
    <connection from=":J8_0" to="E7" fromLane="0" toLane="0" dir="r" state="M"/>
    <connection from=":J9_0" to="E8" fromLane="0" toLane="0" dir="s" state="M"/>

</net>
