<?xml version="1.0" encoding="UTF-8"?>

<!-- generated on 2023-09-18 22:18:09 by Eclipse SUMO netedit Version 1.18.0
-->

<routes xmlns:xsi="http://www.w3.org/2001/XMLSchema-instance" xsi:noNamespaceSchemaLocation="http://sumo.dlr.de/xsd/routes_file.xsd">
    <!-- Routes -->
    <route id="route0" edges="-E3 E1 E6"/>
    <route id="route1" edges="-E7 -E2 -E1 E4"/>
    <!-- Vehicles, persons and containers (sorted by depart) -->
    <vehicle id="v_0"  depart="50.00"  route="route0"/>
    <vehicle id="v_1"  depart="100.00" route="route0"/>
    <vehicle id="v_2"  depart="150.00" route="route0"/>
    <vehicle id="v_3"  depart="200.00" route="route0"/>
    <vehicle id="v_4"  depart="50.00"  route="route1"/>
    <vehicle id="v_5"  depart="100.00" route="route1"/>
    <vehicle id="v_6"  depart="150.00" route="route1"/>
    <vehicle id="v_7"  depart="200.00" route="route1"/>
    <vehicle id="v_8"  depart="50.00"  route="route0"/>
    <vehicle id="v_9"  depart="100.00" route="route0"/>
    <vehicle id="v_10" depart="150.00" route="route0"/>
    <vehicle id="v_11" depart="200.00" route="route0"/>
    <vehicle id="v_12" depart="50.00"  route="route1"/>
    <vehicle id="v_13" depart="100.00" route="route1"/>
    <vehicle id="v_14" depart="150.00" route="route1"/>
    <vehicle id="v_15" depart="200.00" route="route1"/>
</routes>
