<?xml version="1.0" encoding="UTF-8"?>

<!-- generated on 2023-09-18 22:13:21 by Eclipse SUMO netedit Version 1.18.0
<configuration xmlns:xsi="http://www.w3.org/2001/XMLSchema-instance" xsi:noNamespaceSchemaLocation="http://sumo.dlr.de/xsd/neteditConfiguration.xsd">

    <input>
        <sumo-net-file value="/home/fillo/Documents/tesim/Parallel-Sumo/assets/simpleNet.net.xml"/>
    </input>

    <output>
        <output-file value="/home/fillo/Documents/tesim/Parallel-Sumo/assets/simpleNet.net.xml"/>
    </output>

    <processing>
        <geometry.min-radius.fix.railways value="false"/>
        <geometry.max-grade.fix value="false"/>
        <offset.disable-normalization value="true"/>
        <lefthand value="0"/>
    </processing>

    <junctions>
        <no-turnarounds value="true"/>
        <junctions.corner-detail value="5"/>
        <junctions.limit-turn-speed value="5.50"/>
        <rectangular-lane-cut value="0"/>
    </junctions>

    <pedestrian>
        <walkingareas value="0"/>
    </pedestrian>

</configuration>
-->

<net version="1.16" junctionCornerDetail="5" limitTurnSpeed="5.50" xmlns:xsi="http://www.w3.org/2001/XMLSchema-instance" xsi:noNamespaceSchemaLocation="http://sumo.dlr.de/xsd/net_file.xsd">

    <location netOffset="0.00,0.00" convBoundary="-25.40,6.26,284.19,107.80" origBoundary="-10000000000.00,-10000000000.00,10000000000.00,10000000000.00" projParameter="!"/>

    <edge id=":J1_0" function="internal">
        <lane id=":J1_0_0" index="0" speed="8.48" length="11.31" shape="54.79,60.78 53.22,57.67 51.38,55.45 49.26,54.11 46.86,53.65"/>
    </edge>
    <edge id=":J1_1" function="internal">
        <lane id=":J1_1_0" index="0" speed="12.88" length="18.39" shape="54.79,60.78 53.55,56.37 53.37,51.95 54.25,47.51 56.19,43.05"/>
    </edge>
    <edge id=":J1_2" function="internal">
        <lane id=":J1_2_0" index="0" speed="7.61" length="16.43" shape="54.79,60.78 53.72,56.28 54.64,53.06 57.55,51.12 62.46,50.46"/>
    </edge>
    <edge id=":J1_3" function="internal">
        <lane id=":J1_3_0" index="0" speed="5.99" length="9.66" shape="62.47,53.66 59.52,54.04 57.75,55.15 57.16,57.00 57.76,59.58"/>
    </edge>
    <edge id=":J1_4" function="internal">
        <lane id=":J1_4_0" index="0" speed="13.89" length="15.61" shape="62.47,53.66 46.86,53.65"/>
    </edge>
    <edge id=":J1_5" function="internal">
        <lane id=":J1_5_0" index="0" speed="7.41" length="5.00" shape="62.47,53.66 57.52,53.01"/>
    </edge>
    <edge id=":J1_12" function="internal">
        <lane id=":J1_12_0" index="0" speed="7.41" length="11.70" shape="57.52,53.01 54.82,51.03 54.38,47.71 56.19,43.05"/>
    </edge>
    <edge id=":J1_6" function="internal">
        <lane id=":J1_6_0" index="0" speed="5.68" length="9.22" shape="58.99,44.60 57.99,47.17 58.23,49.01 59.72,50.10 62.46,50.46"/>
    </edge>
    <edge id=":J1_7" function="internal">
        <lane id=":J1_7_0" index="0" speed="11.88" length="15.55" shape="58.99,44.60 57.34,48.39 56.58,52.15 56.72,55.88 57.76,59.58"/>
    </edge>
    <edge id=":J1_8" function="internal">
        <lane id=":J1_8_0" index="0" speed="10.60" length="15.89" shape="58.99,44.60 56.35,48.58 53.44,51.41 50.28,53.10 46.86,53.65"/>
    </edge>
    <edge id=":J1_9" function="internal">
        <lane id=":J1_9_0" index="0" speed="9.44" length="12.46" shape="46.88,50.45 49.41,50.00 51.81,48.62 54.07,46.30 56.19,43.05"/>
    </edge>
    <edge id=":J1_10" function="internal">
        <lane id=":J1_10_0" index="0" speed="13.89" length="15.58" shape="46.88,50.45 62.46,50.46"/>
    </edge>
    <edge id=":J1_11" function="internal">
        <lane id=":J1_11_0" index="0" speed="9.73" length="3.59" shape="46.88,50.45 50.27,51.04 50.40,51.12"/>
    </edge>
    <edge id=":J1_13" function="internal">
        <lane id=":J1_13_0" index="0" speed="9.73" length="11.52" shape="50.40,51.12 53.21,52.76 55.71,55.61 57.76,59.58"/>
    </edge>
    <edge id=":J2_0" function="internal">
        <lane id=":J2_0_0" index="0" speed="6.58" length="9.16" shape="126.54,53.48 124.06,53.84 122.28,54.90 121.20,56.68 120.82,59.16"/>
    </edge>
    <edge id=":J2_1" function="internal">
        <lane id=":J2_1_0" index="0" speed="13.89" length="14.48" shape="126.54,53.48 112.06,53.51"/>
    </edge>
    <edge id=":J2_2" function="internal">
        <lane id=":J2_2_0" index="0" speed="7.98" length="4.07" shape="126.54,53.48 122.67,52.93 122.53,52.85"/>
    </edge>
    <edge id=":J2_12" function="internal">
        <lane id=":J2_12_0" index="0" speed="7.98" length="10.17" shape="122.53,52.85 119.92,51.28 118.29,48.51 117.77,44.64"/>
    </edge>
    <edge id=":J2_3" function="internal">
        <lane id=":J2_3_0" index="0" speed="6.48" length="9.03" shape="120.97,44.67 121.30,47.13 122.33,48.88 124.08,49.93 126.53,50.28"/>
    </edge>
    <edge id=":J2_4" function="internal">
        <lane id=":J2_4_0" index="0" speed="13.89" length="14.49" shape="120.97,44.67 120.82,59.16"/>
    </edge>
    <edge id=":J2_5" function="internal">
        <lane id=":J2_5_0" index="0" speed="8.06" length="14.28" shape="120.97,44.67 120.38,48.53 118.70,51.29 115.92,52.95 112.06,53.51"/>
    </edge>
    <edge id=":J2_6" function="internal">
        <lane id=":J2_6_0" index="0" speed="6.58" length="9.16" shape="112.05,50.31 114.53,49.95 116.31,48.89 117.39,47.11 117.77,44.64"/>
    </edge>
    <edge id=":J2_7" function="internal">
        <lane id=":J2_7_0" index="0" speed="13.89" length="14.49" shape="112.05,50.31 126.53,50.28"/>
    </edge>
    <edge id=":J2_8" function="internal">
        <lane id=":J2_8_0" index="0" speed="7.98" length="4.08" shape="112.05,50.31 115.92,50.85 116.07,50.94"/>
    </edge>
    <edge id=":J2_13" function="internal">
        <lane id=":J2_13_0" index="0" speed="7.98" length="10.16" shape="116.07,50.94 118.68,52.51 120.31,55.28 120.82,59.16"/>
    </edge>
    <edge id=":J2_9" function="internal">
        <lane id=":J2_9_0" index="0" speed="6.48" length="9.03" shape="117.62,59.12 117.29,56.66 116.26,54.90 114.51,53.86 112.06,53.51"/>
    </edge>
    <edge id=":J2_10" function="internal">
        <lane id=":J2_10_0" index="0" speed="13.89" length="14.48" shape="117.62,59.12 117.77,44.64"/>
    </edge>
    <edge id=":J2_11" function="internal">
        <lane id=":J2_11_0" index="0" speed="8.06" length="14.28" shape="117.62,59.12 118.21,55.26 119.90,52.50 122.67,50.84 126.53,50.28"/>
    </edge>
    <edge id=":J3_0" function="internal">
        <lane id=":J3_0_0" index="0" speed="8.17" length="12.06" shape="207.88,53.27 204.61,53.73 202.05,55.00 200.21,57.09 199.07,59.99"/>
    </edge>
    <edge id=":J3_1" function="internal">
        <lane id=":J3_1_0" index="0" speed="13.89" length="16.57" shape="207.88,53.27 191.32,53.40"/>
    </edge>
    <edge id=":J3_2" function="internal">
        <lane id=":J3_2_0" index="0" speed="7.54" length="4.53" shape="207.88,53.27 203.39,52.70"/>
    </edge>
    <edge id=":J3_12" function="internal">
        <lane id=":J3_12_0" index="0" speed="7.54" length="11.13" shape="203.39,52.70 200.67,50.83 199.71,47.67 200.52,43.22"/>
    </edge>
    <edge id=":J3_3" function="internal">
        <lane id=":J3_3_0" index="0" speed="5.90" length="9.10" shape="203.56,44.23 203.09,46.82 203.64,48.65 205.23,49.74 207.84,50.07"/>
    </edge>
    <edge id=":J3_4" function="internal">
        <lane id=":J3_4_0" index="0" speed="13.89" length="16.39" shape="203.56,44.23 202.35,48.01 201.15,52.06 200.04,56.14 199.07,59.99"/>
    </edge>
    <edge id=":J3_5" function="internal">
        <lane id=":J3_5_0" index="0" speed="9.81" length="16.47" shape="203.56,44.23 201.65,48.24 198.98,51.10 195.53,52.82 191.32,53.40"/>
    </edge>
    <edge id=":J3_6" function="internal">
        <lane id=":J3_6_0" index="0" speed="8.59" length="12.44" shape="191.31,50.20 194.47,49.76 197.06,48.45 199.08,46.27 200.52,43.22"/>
    </edge>
    <edge id=":J3_7" function="internal">
        <lane id=":J3_7_0" index="0" speed="13.89" length="16.53" shape="191.31,50.20 207.84,50.07"/>
    </edge>
    <edge id=":J3_8" function="internal">
        <lane id=":J3_8_0" index="0" speed="7.65" length="4.30" shape="191.31,50.20 195.57,50.81"/>
    </edge>
    <edge id=":J3_13" function="internal">
        <lane id=":J3_13_0" index="0" speed="7.65" length="10.85" shape="195.57,50.81 198.29,52.64 199.45,55.70 199.07,59.99"/>
    </edge>
    <edge id=":J3_9" function="internal">
        <lane id=":J3_9_0" index="0" speed="6.06" length="9.07" shape="195.96,59.26 196.19,56.69 195.49,54.86 193.86,53.76 191.32,53.40"/>
    </edge>
    <edge id=":J3_10" function="internal">
        <lane id=":J3_10_0" index="0" speed="13.89" length="16.68" shape="195.96,59.26 196.93,55.36 198.08,51.19 199.30,47.04 200.52,43.22"/>
    </edge>
    <edge id=":J3_11" function="internal">
        <lane id=":J3_11_0" index="0" speed="9.43" length="16.35" shape="195.96,59.26 197.50,55.29 199.99,52.44 203.44,50.70 207.84,50.07"/>
    </edge>

    <edge id="-E0" from="J1" to="J0" priority="-1">
        <lane id="-E0_0" index="0" speed="13.89" length="72.27" shape="46.86,53.65 -25.41,53.24"/>
    </edge>
    <edge id="-E1" from="J2" to="J1" priority="-1">
        <lane id="-E1_0" index="0" speed="13.89" length="49.59" shape="112.06,53.51 62.47,53.66"/>
    </edge>
    <edge id="-E2" from="J3" to="J2" priority="-1">
        <lane id="-E2_0" index="0" speed="13.89" length="64.78" shape="191.32,53.40 126.54,53.48"/>
    </edge>
    <edge id="-E3" from="J4" to="J1" priority="-1">
        <lane id="-E3_0" index="0" speed="13.89" length="48.04" shape="72.72,105.35 54.79,60.78"/>
    </edge>
    <edge id="-E4" from="J5" to="J1" priority="-1">
        <lane id="-E4_0" index="0" speed="13.89" length="41.14" shape="78.91,8.60 58.99,44.60"/>
    </edge>
    <edge id="-E5" from="J6" to="J2" priority="-1">
        <lane id="-E5_0" index="0" speed="13.89" length="45.83" shape="117.08,104.94 117.62,59.12"/>
    </edge>
    <edge id="-E6" from="J7" to="J2" priority="-1">
        <lane id="-E6_0" index="0" speed="13.89" length="24.73" shape="121.21,19.95 120.97,44.67"/>
    </edge>
    <edge id="-E7" from="J8" to="J3" priority="-1">
        <lane id="-E7_0" index="0" speed="13.89" length="76.34" shape="284.21,52.19 207.88,53.27"/>
    </edge>
    <edge id="-E8" from="J9" to="J3" priority="-1">
        <lane id="-E8_0" index="0" speed="13.89" length="49.49" shape="184.61,107.43 195.96,59.26"/>
    </edge>
    <edge id="-E9" from="J10" to="J3" priority="-1">
        <lane id="-E9_0" index="0" speed="13.89" length="39.47" shape="216.00,6.77 203.56,44.23"/>
    </edge>
    <edge id="E0" from="J0" to="J1" priority="-1">
        <lane id="E0_0" index="0" speed="13.89" length="72.27" shape="-25.39,50.04 46.88,50.45"/>
    </edge>
    <edge id="E1" from="J1" to="J2" priority="-1">
        <lane id="E1_0" index="0" speed="13.89" length="49.59" shape="62.46,50.46 112.05,50.31"/>
    </edge>
    <edge id="E2" from="J2" to="J3" priority="-1">
        <lane id="E2_0" index="0" speed="13.89" length="64.78" shape="126.53,50.28 191.31,50.20"/>
    </edge>
    <edge id="E3" from="J1" to="J4" priority="-1">
        <lane id="E3_0" index="0" speed="13.89" length="48.04" shape="57.76,59.58 75.68,104.15"/>
    </edge>
    <edge id="E4" from="J1" to="J5" priority="-1">
        <lane id="E4_0" index="0" speed="13.89" length="41.14" shape="56.19,43.05 76.11,7.06"/>
    </edge>
    <edge id="E5" from="J2" to="J6" priority="-1">
        <lane id="E5_0" index="0" speed="13.89" length="45.83" shape="120.82,59.16 120.28,104.98"/>
    </edge>
    <edge id="E6" from="J2" to="J7" priority="-1">
        <lane id="E6_0" index="0" speed="13.89" length="24.73" shape="117.77,44.64 118.01,19.91"/>
    </edge>
    <edge id="E7" from="J3" to="J8" priority="-1">
        <lane id="E7_0" index="0" speed="13.89" length="76.34" shape="207.84,50.07 284.17,48.99"/>
    </edge>
    <edge id="E8" from="J3" to="J9" priority="-1">
        <lane id="E8_0" index="0" speed="13.89" length="49.49" shape="199.07,59.99 187.73,108.16"/>
    </edge>
    <edge id="E9" from="J3" to="J10" priority="-1">
        <lane id="E9_0" index="0" speed="13.89" length="39.47" shape="200.52,43.22 212.97,5.76"/>
    </edge>

    <junction id="J0" type="dead_end" x="-25.40" y="51.64" incLanes="-E0_0" intLanes="" shape="-25.40,51.64 -25.42,54.84 -25.40,51.64"/>
    <junction id="J1" type="priority" x="53.02" y="52.09" incLanes="-E3_0 -E1_0 -E4_0 E0_0" intLanes=":J1_0_0 :J1_1_0 :J1_2_0 :J1_3_0 :J1_4_0 :J1_12_0 :J1_6_0 :J1_7_0 :J1_8_0 :J1_9_0 :J1_10_0 :J1_13_0" shape="53.31,61.37 59.24,58.99 58.94,56.92 59.31,56.20 60.02,55.68 61.07,55.37 62.48,55.26 62.46,48.86 60.45,48.48 59.94,48.00 59.76,47.32 59.91,46.44 60.39,45.37 54.79,42.28 53.56,44.29 52.29,45.94 50.99,47.22 49.66,48.13 48.29,48.68 46.89,48.85 46.85,55.25 49.35,55.94 50.47,56.80 51.50,57.99 52.44,59.51">
        <request index="0"  response="000000010000" foes="000100010000" cont="0"/>
        <request index="1"  response="111000110000" foes="111100110000" cont="0"/>
        <request index="2"  response="110111110000" foes="110111110000" cont="0"/>
        <request index="3"  response="000000000000" foes="100010000000" cont="0"/>
        <request index="4"  response="000000000000" foes="100110000111" cont="0"/>
        <request index="5"  response="111000000000" foes="111110000110" cont="1"/>
        <request index="6"  response="010000000000" foes="010000000100" cont="0"/>
        <request index="7"  response="110000111000" foes="110000111100" cont="0"/>
        <request index="8"  response="110000110011" foes="110000110111" cont="0"/>
        <request index="9"  response="000000000000" foes="000000100010" cont="0"/>
        <request index="10" response="000000000000" foes="000111100110" cont="0"/>
        <request index="11" response="000000011000" foes="000110111110" cont="1"/>
    </junction>
    <junction id="J10" type="dead_end" x="214.48" y="6.26" incLanes="E9_0" intLanes="" shape="214.48,6.26 211.45,5.25 214.48,6.26"/>
    <junction id="J2" type="priority" x="119.30" y="51.89" incLanes="-E2_0 -E6_0 E1_0 -E5_0" intLanes=":J2_0_0 :J2_1_0 :J2_12_0 :J2_3_0 :J2_4_0 :J2_5_0 :J2_6_0 :J2_7_0 :J2_13_0 :J2_9_0 :J2_10_0 :J2_11_0" shape="126.54,55.08 126.53,48.68 124.31,48.24 123.54,47.68 122.99,46.91 122.67,45.91 122.57,44.69 116.17,44.62 115.69,46.89 115.12,47.68 114.32,48.25 113.29,48.59 112.04,48.71 112.06,55.11 114.28,55.55 115.05,56.10 115.60,56.88 115.92,57.88 116.02,59.10 122.42,59.17 122.89,56.90 123.47,56.11 124.27,55.54 125.29,55.20">
        <request index="0"  response="000000000000" foes="000100010000" cont="0"/>
        <request index="1"  response="000000000000" foes="111100110000" cont="0"/>
        <request index="2"  response="000111000000" foes="110111110000" cont="1"/>
        <request index="3"  response="000010000000" foes="100010000000" cont="0"/>
        <request index="4"  response="000110000111" foes="100110000111" cont="0"/>
        <request index="5"  response="011110000110" foes="111110000110" cont="0"/>
        <request index="6"  response="000000000000" foes="010000000100" cont="0"/>
        <request index="7"  response="000000000000" foes="110000111100" cont="0"/>
        <request index="8"  response="000000000011" foes="110000110111" cont="1"/>
        <request index="9"  response="000000000010" foes="000000100010" cont="0"/>
        <request index="10" response="000111000110" foes="000111100110" cont="0"/>
        <request index="11" response="000110111110" foes="000110111110" cont="0"/>
    </junction>
    <junction id="J3" type="priority" x="199.36" y="51.79" incLanes="-E7_0 -E9_0 E2_0 -E8_0" intLanes=":J3_0_0 :J3_1_0 :J3_12_0 :J3_3_0 :J3_4_0 :J3_5_0 :J3_6_0 :J3_7_0 :J3_13_0 :J3_9_0 :J3_10_0 :J3_11_0" shape="207.91,54.87 207.82,48.47 205.73,48.08 205.13,47.56 204.82,46.83 204.80,45.89 205.08,44.73 199.00,42.71 197.28,45.98 196.10,47.12 194.72,47.94 193.12,48.43 191.31,48.60 191.32,55.00 193.44,55.43 194.09,55.97 194.47,56.73 194.57,57.70 194.40,58.89 200.63,60.36 202.00,57.35 203.09,56.28 204.43,55.52 206.04,55.05">
        <request index="0"  response="000000000000" foes="000100010000" cont="0"/>
        <request index="1"  response="000000000000" foes="111100110000" cont="0"/>
        <request index="2"  response="000011000000" foes="110011110000" cont="1"/>
        <request index="3"  response="000010000000" foes="100010000000" cont="0"/>
        <request index="4"  response="000110000111" foes="100110000111" cont="0"/>
        <request index="5"  response="011110000110" foes="111110000110" cont="0"/>
        <request index="6"  response="000000000000" foes="010000000100" cont="0"/>
        <request index="7"  response="000000000000" foes="110000111100" cont="0"/>
        <request index="8"  response="000000000011" foes="110000110011" cont="1"/>
        <request index="9"  response="000000000010" foes="000000100010" cont="0"/>
        <request index="10" response="000111000110" foes="000111100110" cont="0"/>
        <request index="11" response="000110111110" foes="000110111110" cont="0"/>
    </junction>
    <junction id="J4" type="dead_end" x="74.20" y="104.75" incLanes="E3_0" intLanes="" shape="74.20,104.75 77.17,103.56 74.20,104.75"/>
    <junction id="J5" type="dead_end" x="77.51" y="7.83" incLanes="E4_0" intLanes="" shape="77.51,7.83 74.71,6.28 77.51,7.83"/>
    <junction id="J6" type="dead_end" x="118.68" y="104.96" incLanes="E5_0" intLanes="" shape="118.68,104.96 121.88,105.00 118.68,104.96"/>
    <junction id="J7" type="dead_end" x="119.61" y="19.93" incLanes="E6_0" intLanes="" shape="119.61,19.93 116.41,19.90 119.61,19.93"/>
    <junction id="J8" type="dead_end" x="284.19" y="50.59" incLanes="E7_0" intLanes="" shape="284.19,50.59 284.15,47.39 284.19,50.59"/>
    <junction id="J9" type="dead_end" x="186.17" y="107.80" incLanes="E8_0" intLanes="" shape="186.17,107.80 189.29,108.53 186.17,107.80"/>

    <junction id=":J1_12_0" type="internal" x="57.52" y="53.01" incLanes=":J1_5_0 E0_0" intLanes=":J1_1_0 :J1_2_0 :J1_7_0 :J1_8_0 :J1_9_0 :J1_10_0"/>
    <junction id=":J1_13_0" type="internal" x="50.40" y="51.12" incLanes=":J1_11_0 -E1_0" intLanes=":J1_1_0 :J1_2_0 :J1_3_0 :J1_4_0 :J1_7_0 :J1_8_0"/>
    <junction id=":J2_12_0" type="internal" x="122.53" y="52.85" incLanes=":J2_2_0 E1_0" intLanes=":J2_4_0 :J2_5_0 :J2_6_0 :J2_7_0 :J2_10_0 :J2_11_0"/>
    <junction id=":J2_13_0" type="internal" x="116.07" y="50.94" incLanes=":J2_8_0 -E2_0" intLanes=":J2_0_0 :J2_1_0 :J2_4_0 :J2_5_0 :J2_10_0 :J2_11_0"/>
    <junction id=":J3_12_0" type="internal" x="203.39" y="52.70" incLanes=":J3_2_0 E2_0" intLanes=":J3_4_0 :J3_5_0 :J3_6_0 :J3_7_0 :J3_10_0 :J3_11_0"/>
    <junction id=":J3_13_0" type="internal" x="195.57" y="50.81" incLanes=":J3_8_0 -E7_0" intLanes=":J3_0_0 :J3_1_0 :J3_4_0 :J3_5_0 :J3_10_0 :J3_11_0"/>

    <connection from="-E1" to="E3" fromLane="0" toLane="0" via=":J1_3_0" dir="r" state="M"/>
    <connection from="-E1" to="-E0" fromLane="0" toLane="0" via=":J1_4_0" dir="s" state="M"/>
    <connection from="-E1" to="E4" fromLane="0" toLane="0" via=":J1_5_0" dir="l" state="m"/>
    <connection from="-E2" to="E5" fromLane="0" toLane="0" via=":J2_0_0" dir="r" state="M"/>
    <connection from="-E2" to="-E1" fromLane="0" toLane="0" via=":J2_1_0" dir="s" state="M"/>
    <connection from="-E2" to="E6" fromLane="0" toLane="0" via=":J2_2_0" dir="l" state="m"/>
    <connection from="-E3" to="-E0" fromLane="0" toLane="0" via=":J1_0_0" dir="r" state="m"/>
    <connection from="-E3" to="E4" fromLane="0" toLane="0" via=":J1_1_0" dir="L" state="m"/>
    <connection from="-E3" to="E1" fromLane="0" toLane="0" via=":J1_2_0" dir="l" state="m"/>
    <connection from="-E4" to="E1" fromLane="0" toLane="0" via=":J1_6_0" dir="r" state="m"/>
    <connection from="-E4" to="E3" fromLane="0" toLane="0" via=":J1_7_0" dir="R" state="m"/>
    <connection from="-E4" to="-E0" fromLane="0" toLane="0" via=":J1_8_0" dir="l" state="m"/>
    <connection from="-E5" to="-E1" fromLane="0" toLane="0" via=":J2_9_0" dir="r" state="m"/>
    <connection from="-E5" to="E6" fromLane="0" toLane="0" via=":J2_10_0" dir="s" state="m"/>
    <connection from="-E5" to="E2" fromLane="0" toLane="0" via=":J2_11_0" dir="l" state="m"/>
    <connection from="-E6" to="E2" fromLane="0" toLane="0" via=":J2_3_0" dir="r" state="m"/>
    <connection from="-E6" to="E5" fromLane="0" toLane="0" via=":J2_4_0" dir="s" state="m"/>
    <connection from="-E6" to="-E1" fromLane="0" toLane="0" via=":J2_5_0" dir="l" state="m"/>
    <connection from="-E7" to="E8" fromLane="0" toLane="0" via=":J3_0_0" dir="r" state="M"/>
    <connection from="-E7" to="-E2" fromLane="0" toLane="0" via=":J3_1_0" dir="s" state="M"/>
    <connection from="-E7" to="E9" fromLane="0" toLane="0" via=":J3_2_0" dir="l" state="m"/>
    <connection from="-E8" to="-E2" fromLane="0" toLane="0" via=":J3_9_0" dir="r" state="m"/>
    <connection from="-E8" to="E9" fromLane="0" toLane="0" via=":J3_10_0" dir="s" state="m"/>
    <connection from="-E8" to="E7" fromLane="0" toLane="0" via=":J3_11_0" dir="l" state="m"/>
    <connection from="-E9" to="E7" fromLane="0" toLane="0" via=":J3_3_0" dir="r" state="m"/>
    <connection from="-E9" to="E8" fromLane="0" toLane="0" via=":J3_4_0" dir="s" state="m"/>
    <connection from="-E9" to="-E2" fromLane="0" toLane="0" via=":J3_5_0" dir="l" state="m"/>
    <connection from="E0" to="E4" fromLane="0" toLane="0" via=":J1_9_0" dir="r" state="M"/>
    <connection from="E0" to="E1" fromLane="0" toLane="0" via=":J1_10_0" dir="s" state="M"/>
    <connection from="E0" to="E3" fromLane="0" toLane="0" via=":J1_11_0" dir="l" state="m"/>
    <connection from="E1" to="E6" fromLane="0" toLane="0" via=":J2_6_0" dir="r" state="M"/>
    <connection from="E1" to="E2" fromLane="0" toLane="0" via=":J2_7_0" dir="s" state="M"/>
    <connection from="E1" to="E5" fromLane="0" toLane="0" via=":J2_8_0" dir="l" state="m"/>
    <connection from="E2" to="E9" fromLane="0" toLane="0" via=":J3_6_0" dir="r" state="M"/>
    <connection from="E2" to="E7" fromLane="0" toLane="0" via=":J3_7_0" dir="s" state="M"/>
    <connection from="E2" to="E8" fromLane="0" toLane="0" via=":J3_8_0" dir="l" state="m"/>

    <connection from=":J1_0" to="-E0" fromLane="0" toLane="0" dir="r" state="M"/>
    <connection from=":J1_1" to="E4" fromLane="0" toLane="0" dir="L" state="M"/>
    <connection from=":J1_2" to="E1" fromLane="0" toLane="0" dir="l" state="M"/>
    <connection from=":J1_3" to="E3" fromLane="0" toLane="0" dir="r" state="M"/>
    <connection from=":J1_4" to="-E0" fromLane="0" toLane="0" dir="s" state="M"/>
    <connection from=":J1_5" to="E4" fromLane="0" toLane="0" via=":J1_12_0" dir="l" state="m"/>
    <connection from=":J1_12" to="E4" fromLane="0" toLane="0" dir="l" state="M"/>
    <connection from=":J1_6" to="E1" fromLane="0" toLane="0" dir="r" state="M"/>
    <connection from=":J1_7" to="E3" fromLane="0" toLane="0" dir="R" state="M"/>
    <connection from=":J1_8" to="-E0" fromLane="0" toLane="0" dir="l" state="M"/>
    <connection from=":J1_9" to="E4" fromLane="0" toLane="0" dir="r" state="M"/>
    <connection from=":J1_10" to="E1" fromLane="0" toLane="0" dir="s" state="M"/>
    <connection from=":J1_11" to="E3" fromLane="0" toLane="0" via=":J1_13_0" dir="l" state="m"/>
    <connection from=":J1_13" to="E3" fromLane="0" toLane="0" dir="l" state="M"/>
    <connection from=":J2_0" to="E5" fromLane="0" toLane="0" dir="r" state="M"/>
    <connection from=":J2_1" to="-E1" fromLane="0" toLane="0" dir="s" state="M"/>
    <connection from=":J2_2" to="E6" fromLane="0" toLane="0" via=":J2_12_0" dir="l" state="m"/>
    <connection from=":J2_12" to="E6" fromLane="0" toLane="0" dir="l" state="M"/>
    <connection from=":J2_3" to="E2" fromLane="0" toLane="0" dir="r" state="M"/>
    <connection from=":J2_4" to="E5" fromLane="0" toLane="0" dir="s" state="M"/>
    <connection from=":J2_5" to="-E1" fromLane="0" toLane="0" dir="l" state="M"/>
    <connection from=":J2_6" to="E6" fromLane="0" toLane="0" dir="r" state="M"/>
    <connection from=":J2_7" to="E2" fromLane="0" toLane="0" dir="s" state="M"/>
    <connection from=":J2_8" to="E5" fromLane="0" toLane="0" via=":J2_13_0" dir="l" state="m"/>
    <connection from=":J2_13" to="E5" fromLane="0" toLane="0" dir="l" state="M"/>
    <connection from=":J2_9" to="-E1" fromLane="0" toLane="0" dir="r" state="M"/>
    <connection from=":J2_10" to="E6" fromLane="0" toLane="0" dir="s" state="M"/>
    <connection from=":J2_11" to="E2" fromLane="0" toLane="0" dir="l" state="M"/>
    <connection from=":J3_0" to="E8" fromLane="0" toLane="0" dir="r" state="M"/>
    <connection from=":J3_1" to="-E2" fromLane="0" toLane="0" dir="s" state="M"/>
    <connection from=":J3_2" to="E9" fromLane="0" toLane="0" via=":J3_12_0" dir="l" state="m"/>
    <connection from=":J3_12" to="E9" fromLane="0" toLane="0" dir="l" state="M"/>
    <connection from=":J3_3" to="E7" fromLane="0" toLane="0" dir="r" state="M"/>
    <connection from=":J3_4" to="E8" fromLane="0" toLane="0" dir="s" state="M"/>
    <connection from=":J3_5" to="-E2" fromLane="0" toLane="0" dir="l" state="M"/>
    <connection from=":J3_6" to="E9" fromLane="0" toLane="0" dir="r" state="M"/>
    <connection from=":J3_7" to="E7" fromLane="0" toLane="0" dir="s" state="M"/>
    <connection from=":J3_8" to="E8" fromLane="0" toLane="0" via=":J3_13_0" dir="l" state="m"/>
    <connection from=":J3_13" to="E8" fromLane="0" toLane="0" dir="l" state="M"/>
    <connection from=":J3_9" to="-E2" fromLane="0" toLane="0" dir="r" state="M"/>
    <connection from=":J3_10" to="E9" fromLane="0" toLane="0" dir="s" state="M"/>
    <connection from=":J3_11" to="E7" fromLane="0" toLane="0" dir="l" state="M"/>

</net>
